10927114
  -OEChem-04012400093D

 56 59  0     1  0  0  0  0  0999 V2000
   -2.5313    2.6952    0.7508 O   0  0  0  0  0  0  0  0  0  0  0  0
   -5.0356    0.0661   -1.7674 O   0  0  0  0  0  0  0  0  0  0  0  0
    5.5419   -1.4053    0.6128 O   0  0  0  0  0  0  0  0  0  0  0  0
   -3.3195    1.1445    2.2554 O   0  0  0  0  0  0  0  0  0  0  0  0
   -0.0354   -1.9395   -0.1409 N   0  0  1  0  0  0  0  0  0  0  0  0
    1.9249    1.1810   -0.7967 N   0  0  0  0  0  0  0  0  0  0  0  0
    0.1096   -0.6249   -0.8266 C   0  0  1  0  0  0  0  0  0  0  0  0
   -2.4953   -1.6679    0.0544 C   0  0  1  0  0  0  0  0  0  0  0  0
   -2.3838   -0.2509   -0.5594 C   0  0  2  0  0  0  0  0  0  0  0  0
   -0.9806    0.3408   -0.3355 C   0  0  0  0  0  0  0  0  0  0  0  0
   -1.3341   -2.5476   -0.4539 C   0  0  0  0  0  0  0  0  0  0  0  0
    1.4927   -0.0984   -0.5920 C   0  0  0  0  0  0  0  0  0  0  0  0
    1.0826   -2.8524   -0.4607 C   0  0  0  0  0  0  0  0  0  0  0  0
    2.5709   -0.8605   -0.1937 C   0  0  0  0  0  0  0  0  0  0  0  0
    2.4229   -2.3140    0.0938 C   0  0  0  0  0  0  0  0  0  0  0  0
   -2.5406   -1.6704    1.5912 C   0  0  0  0  0  0  0  0  0  0  0  0
   -3.4534    0.6867   -0.0842 C   0  0  0  0  0  0  0  0  0  0  0  0
    3.7027   -0.0045   -0.1223 C   0  0  0  0  0  0  0  0  0  0  0  0
    3.2702    1.2700   -0.5052 C   0  0  0  0  0  0  0  0  0  0  0  0
   -2.7089   -3.0749    2.1270 C   0  0  0  0  0  0  0  0  0  0  0  0
   -3.1036    1.5147    1.1082 C   0  0  0  0  0  0  0  0  0  0  0  0
   -4.6537    0.7956   -0.6724 C   0  0  0  0  0  0  0  0  0  0  0  0
    5.0559   -0.1840    0.2273 C   0  0  0  0  0  0  0  0  0  0  0  0
    4.1300    2.3733   -0.5553 C   0  0  0  0  0  0  0  0  0  0  0  0
    5.9250    0.9120    0.1825 C   0  0  0  0  0  0  0  0  0  0  0  0
    5.4671    2.1700   -0.2031 C   0  0  0  0  0  0  0  0  0  0  0  0
   -2.1600    3.5590    1.8307 C   0  0  0  0  0  0  0  0  0  0  0  0
   -5.9606    0.7865   -2.5647 C   0  0  0  0  0  0  0  0  0  0  0  0
   -0.0038   -0.7662   -1.9116 H   0  0  0  0  0  0  0  0  0  0  0  0
   -3.4304   -2.1182   -0.3085 H   0  0  0  0  0  0  0  0  0  0  0  0
   -2.4918   -0.3651   -1.6486 H   0  0  0  0  0  0  0  0  0  0  0  0
   -0.7947    0.5637    0.7235 H   0  0  0  0  0  0  0  0  0  0  0  0
   -0.8962    1.2914   -0.8787 H   0  0  0  0  0  0  0  0  0  0  0  0
   -1.4011   -3.5579   -0.0386 H   0  0  0  0  0  0  0  0  0  0  0  0
   -1.4328   -2.6751   -1.5413 H   0  0  0  0  0  0  0  0  0  0  0  0
    1.1557   -2.9954   -1.5472 H   0  0  0  0  0  0  0  0  0  0  0  0
    0.9102   -3.8398   -0.0150 H   0  0  0  0  0  0  0  0  0  0  0  0
    3.2389   -2.8859   -0.3605 H   0  0  0  0  0  0  0  0  0  0  0  0
    2.4596   -2.4684    1.1790 H   0  0  0  0  0  0  0  0  0  0  0  0
   -3.4301   -1.1322    1.9242 H   0  0  0  0  0  0  0  0  0  0  0  0
   -1.6630   -1.1976    2.0429 H   0  0  0  0  0  0  0  0  0  0  0  0
    1.3521    1.9514   -1.1127 H   0  0  0  0  0  0  0  0  0  0  0  0
   -3.5006   -3.6208    1.6036 H   0  0  0  0  0  0  0  0  0  0  0  0
   -1.7816   -3.6520    2.0676 H   0  0  0  0  0  0  0  0  0  0  0  0
   -2.9818   -3.0354    3.1875 H   0  0  0  0  0  0  0  0  0  0  0  0
   -5.4155    1.4722   -0.3069 H   0  0  0  0  0  0  0  0  0  0  0  0
    3.7752    3.3534   -0.8562 H   0  0  0  0  0  0  0  0  0  0  0  0
    6.9711    0.7854    0.4508 H   0  0  0  0  0  0  0  0  0  0  0  0
    6.1595    3.0074   -0.2313 H   0  0  0  0  0  0  0  0  0  0  0  0
    4.8052   -2.0225    0.7377 H   0  0  0  0  0  0  0  0  0  0  0  0
   -1.4157    3.0700    2.4664 H   0  0  0  0  0  0  0  0  0  0  0  0
   -3.0431    3.8388    2.4128 H   0  0  0  0  0  0  0  0  0  0  0  0
   -1.7181    4.4639    1.4052 H   0  0  0  0  0  0  0  0  0  0  0  0
   -6.1754    0.1925   -3.4581 H   0  0  0  0  0  0  0  0  0  0  0  0
   -5.5415    1.7463   -2.8873 H   0  0  0  0  0  0  0  0  0  0  0  0
   -6.9029    0.9436   -2.0282 H   0  0  0  0  0  0  0  0  0  0  0  0
  1 21  1  0  0  0  0
  1 27  1  0  0  0  0
  2 22  1  0  0  0  0
  2 28  1  0  0  0  0
  3 23  1  0  0  0  0
  3 50  1  0  0  0  0
  4 21  2  0  0  0  0
  5  7  1  0  0  0  0
  5 11  1  0  0  0  0
  5 13  1  0  0  0  0
  6 12  1  0  0  0  0
  6 19  1  0  0  0  0
  6 42  1  0  0  0  0
  7 10  1  0  0  0  0
  7 12  1  0  0  0  0
  7 29  1  0  0  0  0
  8  9  1  0  0  0  0
  8 11  1  0  0  0  0
  8 16  1  0  0  0  0
  8 30  1  0  0  0  0
  9 10  1  0  0  0  0
  9 17  1  0  0  0  0
  9 31  1  0  0  0  0
 10 32  1  0  0  0  0
 10 33  1  0  0  0  0
 11 34  1  0  0  0  0
 11 35  1  0  0  0  0
 12 14  2  0  0  0  0
 13 15  1  0  0  0  0
 13 36  1  0  0  0  0
 13 37  1  0  0  0  0
 14 15  1  0  0  0  0
 14 18  1  0  0  0  0
 15 38  1  0  0  0  0
 15 39  1  0  0  0  0
 16 20  1  0  0  0  0
 16 40  1  0  0  0  0
 16 41  1  0  0  0  0
 17 21  1  0  0  0  0
 17 22  2  0  0  0  0
 18 19  2  0  0  0  0
 18 23  1  0  0  0  0
 19 24  1  0  0  0  0
 20 43  1  0  0  0  0
 20 44  1  0  0  0  0
 20 45  1  0  0  0  0
 22 46  1  0  0  0  0
 23 25  2  0  0  0  0
 24 26  2  0  0  0  0
 24 47  1  0  0  0  0
 25 26  1  0  0  0  0
 25 48  1  0  0  0  0
 26 49  1  0  0  0  0
 27 51  1  0  0  0  0
 27 52  1  0  0  0  0
 27 53  1  0  0  0  0
 28 54  1  0  0  0  0
 28 55  1  0  0  0  0
 28 56  1  0  0  0  0
M  END
> <PUBCHEM_COMPOUND_CID>
10927114

> <PUBCHEM_CONFORMER_RMSD>
0.8

> <PUBCHEM_CONFORMER_DIVERSEORDER>
1
5
14
8
13
2
12
7
17
9
16
6
15
4
11
3
10

> <PUBCHEM_MMFF94_PARTIAL_CHARGES>
29
1 -0.43
11 0.27
12 -0.33
13 0.27
14 -0.18
15 0.18
17 -0.12
19 -0.15
2 -0.36
21 0.71
22 -0.07
23 0.08
24 -0.15
25 -0.15
26 -0.15
27 0.28
28 0.28
3 -0.53
4 -0.57
42 0.27
46 0.15
47 0.15
48 0.15
49 0.15
5 -0.81
50 0.45
6 0.03
7 0.45
9 0.14

> <PUBCHEM_EFFECTIVE_ROTOR_COUNT>
6.2

> <PUBCHEM_PHARMACOPHORE_FEATURES>
11
1 2 acceptor
1 20 hydrophobe
1 3 donor
1 4 acceptor
1 5 cation
1 6 cation
1 6 donor
5 6 12 14 18 19 rings
6 18 19 23 24 25 26 rings
6 5 7 12 13 14 15 rings
6 5 7 8 9 10 11 rings

> <PUBCHEM_HEAVY_ATOM_COUNT>
28

> <PUBCHEM_ATOM_DEF_STEREO_COUNT>
3

> <PUBCHEM_ATOM_UDEF_STEREO_COUNT>
0

> <PUBCHEM_BOND_DEF_STEREO_COUNT>
1

> <PUBCHEM_BOND_UDEF_STEREO_COUNT>
0

> <PUBCHEM_ISOTOPIC_ATOM_COUNT>
0

> <PUBCHEM_COMPONENT_COUNT>
1

> <PUBCHEM_CACTVS_TAUTO_COUNT>
9

> <PUBCHEM_CONFORMER_ID>
00A6BC0A00000001

> <PUBCHEM_MMFF94_ENERGY>
71.1295

> <PUBCHEM_FEATURE_SELFOVERLAP>
56.017

> <PUBCHEM_SHAPE_FINGERPRINT>
10366900 7 18201996637952564761
10670039 82 18271541844417724852
11135609 187 18410847755769930813
11513181 2 17701827583101576126
12107183 9 18194402191734941650
12236239 1 18060129921095800268
12293681 160 18341879780931734497
12390115 104 18267886023968027324
12403260 363 18198052582612084215
12633257 1 17894902998024574698
12788726 201 18201712925767469257
13140716 1 18334864909272683882
13583140 156 17312827073712397633
14767858 380 18201703077734150301
14790565 3 17611194046031555084
15196674 1 18335699494475003918
15238133 3 14635151162319762151
17492 54 18130210619904028629
20739085 24 18113345215340747692
21033648 144 18333449837269484669
21033648 29 18267293425771134712
21033650 10 17345217569971112468
21859007 373 16951950778865330549
21864079 5 18127141779186147953
23559900 14 18336539512315087300
3117164 225 18263366898145054762
335352 9 18409442575930807038
3633792 109 18263631884552126189
392239 28 18269293402945990891
460360 51 18337974332582968094
469060 322 18052847980360806891
474 4 18410291376314177351
5081480 168 16912610261867094278
5104073 3 18261672666732447354
6328613 192 18336556006049839972
6371009 1 18342164545320832432
9981440 41 18341615888976341995

> <PUBCHEM_SHAPE_MULTIPOLES>
542.79
12.55
3.52
1.67
7.62
0.12
-0.29
-5.91
2.71
-0.9
-1.63
-3.46
-0.37
0.02

> <PUBCHEM_SHAPE_SELFOVERLAP>
1169.603

> <PUBCHEM_SHAPE_VOLUME>
297.6

> <PUBCHEM_COORDINATE_TYPE>
2
5
10

$$$$
