11726520
  -OEChem-04012400043D

 51 55  0     1  0  0  0  0  0999 V2000
   -4.3526    0.5588   -1.2735 O   0  0  0  0  0  0  0  0  0  0  0  0
    2.3816    0.7481    2.9649 O   0  0  0  0  0  0  0  0  0  0  0  0
   -1.9165   -2.3747    1.3888 O   0  0  0  0  0  0  0  0  0  0  0  0
   -2.9738   -3.2849   -0.4587 O   0  0  0  0  0  0  0  0  0  0  0  0
    0.1497    2.1794   -0.2553 N   0  0  1  0  0  0  0  0  0  0  0  0
    3.3565   -0.7387    1.4370 N   0  0  0  0  0  0  0  0  0  0  0  0
    0.4431    1.0364    0.6178 C   0  0  2  0  0  0  0  0  0  0  0  0
    1.9755    0.9662    0.5337 C   0  0  2  0  0  0  0  0  0  0  0  0
   -0.3708   -0.2008    0.2184 C   0  0  0  0  0  0  0  0  0  0  0  0
   -2.1176    1.3850   -0.6401 C   0  0  2  0  0  0  0  0  0  0  0  0
   -1.8733    0.1495    0.2646 C   0  0  1  0  0  0  0  0  0  0  0  0
    2.3960    2.4431    0.3708 C   0  0  0  0  0  0  0  0  0  0  0  0
   -1.2550    2.5781   -0.1938 C   0  0  0  0  0  0  0  0  0  0  0  0
    1.0908    3.2167    0.1527 C   0  0  0  0  0  0  0  0  0  0  0  0
    2.5626    0.0804   -0.5380 C   0  0  0  0  0  0  0  0  0  0  0  0
   -3.6231    1.6899   -0.7530 C   0  0  2  0  0  0  0  0  0  0  0  0
    2.5697    0.3497    1.8250 C   0  0  0  0  0  0  0  0  0  0  0  0
   -2.8165   -0.9392   -0.1575 C   0  0  0  0  0  0  0  0  0  0  0  0
    3.3557   -0.8993    0.0569 C   0  0  0  0  0  0  0  0  0  0  0  0
    2.4313    0.1237   -1.9160 C   0  0  0  0  0  0  0  0  0  0  0  0
   -4.2978    2.1599    0.5350 C   0  0  0  0  0  0  0  0  0  0  0  0
   -3.9215   -0.6806   -0.8711 C   0  0  0  0  0  0  0  0  0  0  0  0
    4.0278   -1.8612   -0.6713 C   0  0  0  0  0  0  0  0  0  0  0  0
   -2.5939   -2.3375    0.2128 C   0  0  0  0  0  0  0  0  0  0  0  0
    3.1010   -0.8397   -2.6771 C   0  0  0  0  0  0  0  0  0  0  0  0
    3.8917   -1.8247   -2.0593 C   0  0  0  0  0  0  0  0  0  0  0  0
   -1.6206   -3.6837    1.8862 C   0  0  0  0  0  0  0  0  0  0  0  0
    0.1587    1.2947    1.6504 H   0  0  0  0  0  0  0  0  0  0  0  0
   -0.1099   -1.0099    0.9053 H   0  0  0  0  0  0  0  0  0  0  0  0
   -0.1138   -0.5436   -0.7907 H   0  0  0  0  0  0  0  0  0  0  0  0
   -1.7906    1.1120   -1.6580 H   0  0  0  0  0  0  0  0  0  0  0  0
   -2.1189    0.4102    1.3040 H   0  0  0  0  0  0  0  0  0  0  0  0
    3.0608    2.5876   -0.4895 H   0  0  0  0  0  0  0  0  0  0  0  0
    2.9178    2.8322    1.2526 H   0  0  0  0  0  0  0  0  0  0  0  0
   -1.4275    3.4230   -0.8707 H   0  0  0  0  0  0  0  0  0  0  0  0
   -1.5271    2.9004    0.8185 H   0  0  0  0  0  0  0  0  0  0  0  0
    0.7849    3.6976    1.0903 H   0  0  0  0  0  0  0  0  0  0  0  0
    1.2066    3.9899   -0.6132 H   0  0  0  0  0  0  0  0  0  0  0  0
   -3.7512    2.4876   -1.4953 H   0  0  0  0  0  0  0  0  0  0  0  0
    3.8716   -1.3378    2.0710 H   0  0  0  0  0  0  0  0  0  0  0  0
    1.8250    0.8799   -2.4024 H   0  0  0  0  0  0  0  0  0  0  0  0
   -3.8478    3.0810    0.9151 H   0  0  0  0  0  0  0  0  0  0  0  0
   -5.3611    2.3516    0.3514 H   0  0  0  0  0  0  0  0  0  0  0  0
   -4.2560    1.3986    1.3202 H   0  0  0  0  0  0  0  0  0  0  0  0
   -4.6232   -1.4297   -1.2145 H   0  0  0  0  0  0  0  0  0  0  0  0
    4.6403   -2.6164   -0.1922 H   0  0  0  0  0  0  0  0  0  0  0  0
    3.0106   -0.8276   -3.7601 H   0  0  0  0  0  0  0  0  0  0  0  0
    4.4033   -2.5627   -2.6714 H   0  0  0  0  0  0  0  0  0  0  0  0
   -1.0795   -3.5742    2.8298 H   0  0  0  0  0  0  0  0  0  0  0  0
   -0.9848   -4.2227    1.1772 H   0  0  0  0  0  0  0  0  0  0  0  0
   -2.5463   -4.2361    2.0734 H   0  0  0  0  0  0  0  0  0  0  0  0
  1 16  1  0  0  0  0
  1 22  1  0  0  0  0
  2 17  2  0  0  0  0
  3 24  1  0  0  0  0
  3 27  1  0  0  0  0
  4 24  2  0  0  0  0
  5  7  1  0  0  0  0
  5 13  1  0  0  0  0
  5 14  1  0  0  0  0
  6 17  1  0  0  0  0
  6 19  1  0  0  0  0
  6 40  1  0  0  0  0
  7  8  1  0  0  0  0
  7  9  1  0  0  0  0
  7 28  1  0  0  0  0
  8 12  1  0  0  0  0
  8 15  1  0  0  0  0
  8 17  1  0  0  0  0
  9 11  1  0  0  0  0
  9 29  1  0  0  0  0
  9 30  1  0  0  0  0
 10 11  1  0  0  0  0
 10 13  1  0  0  0  0
 10 16  1  0  0  0  0
 10 31  1  0  0  0  0
 11 18  1  0  0  0  0
 11 32  1  0  0  0  0
 12 14  1  0  0  0  0
 12 33  1  0  0  0  0
 12 34  1  0  0  0  0
 13 35  1  0  0  0  0
 13 36  1  0  0  0  0
 14 37  1  0  0  0  0
 14 38  1  0  0  0  0
 15 19  1  0  0  0  0
 15 20  2  0  0  0  0
 16 21  1  0  0  0  0
 16 39  1  0  0  0  0
 18 22  2  0  0  0  0
 18 24  1  0  0  0  0
 19 23  2  0  0  0  0
 20 25  1  0  0  0  0
 20 41  1  0  0  0  0
 21 42  1  0  0  0  0
 21 43  1  0  0  0  0
 21 44  1  0  0  0  0
 22 45  1  0  0  0  0
 23 26  1  0  0  0  0
 23 46  1  0  0  0  0
 25 26  2  0  0  0  0
 25 47  1  0  0  0  0
 26 48  1  0  0  0  0
 27 49  1  0  0  0  0
 27 50  1  0  0  0  0
 27 51  1  0  0  0  0
M  END
> <PUBCHEM_COMPOUND_CID>
11726520

> <PUBCHEM_CONFORMER_RMSD>
0.8

> <PUBCHEM_CONFORMER_DIVERSEORDER>
1
4
3
2

> <PUBCHEM_MMFF94_PARTIAL_CHARGES>
29
1 -0.36
11 0.14
13 0.27
14 0.27
15 -0.14
16 0.28
17 0.57
18 -0.12
19 0.12
2 -0.57
20 -0.15
22 -0.07
23 -0.15
24 0.71
25 -0.15
26 -0.15
27 0.28
3 -0.43
4 -0.57
40 0.37
41 0.15
45 0.15
46 0.15
47 0.15
48 0.15
5 -0.81
6 -0.55
7 0.27
8 0.2

> <PUBCHEM_EFFECTIVE_ROTOR_COUNT>
3.4

> <PUBCHEM_PHARMACOPHORE_FEATURES>
10
1 1 acceptor
1 2 acceptor
1 4 acceptor
1 5 cation
1 6 donor
5 5 7 8 12 14 rings
5 6 8 15 17 19 rings
6 1 10 11 16 18 22 rings
6 15 19 20 23 25 26 rings
6 5 7 9 10 11 13 rings

> <PUBCHEM_HEAVY_ATOM_COUNT>
27

> <PUBCHEM_ATOM_DEF_STEREO_COUNT>
5

> <PUBCHEM_ATOM_UDEF_STEREO_COUNT>
0

> <PUBCHEM_BOND_DEF_STEREO_COUNT>
0

> <PUBCHEM_BOND_UDEF_STEREO_COUNT>
0

> <PUBCHEM_ISOTOPIC_ATOM_COUNT>
0

> <PUBCHEM_COMPONENT_COUNT>
1

> <PUBCHEM_CACTVS_TAUTO_COUNT>
2

> <PUBCHEM_CONFORMER_ID>
00B2EEB800000001

> <PUBCHEM_MMFF94_ENERGY>
81.8527

> <PUBCHEM_FEATURE_SELFOVERLAP>
50.945

> <PUBCHEM_SHAPE_FINGERPRINT>
10369192 42 12830649236177201294
11488393 25 18055374654493388772
11582403 64 16110839742768777064
12156800 1 11909790633947517507
12363563 72 17916876720408927406
12553582 1 18338528442918369418
12788726 201 17980212889563157980
13135754 10 17533812470409216755
13140716 1 18408597089447602449
13402501 40 18058733485678910686
13544653 18 17202770285257436420
13583140 156 15625636398201830881
14022347 108 18335986350470983361
14223421 5 18122904501906873857
14251757 5 18263943071669342366
14790565 3 17906745699964957617
14932701 244 16376114785580004278
15420108 30 16692187682692575537
15635459 17 18049448341762817667
15664445 248 17176322928815520221
16752209 62 18116144468217250205
19315092 285 15768622370581823575
19591789 44 17906170655551682465
20600515 1 18338498769090211104
20691752 17 18263074440451528133
20771845 171 17315643890070585677
20905425 154 17757265259995527689
21133410 32 16737249320168865850
21197605 99 13791596457135258002
21781051 124 18113909247800169483
23184049 29 18189606323234356705
23557571 272 18338234972177369248
23559900 14 18342735209045904500
25222932 49 16890037639767621643
3298306 158 18045211645015941173
394071 54 16459697623746955499
404807 14 14758751495178271653
4280585 95 18409450242236089268
463206 1 18265053518284594106
5309563 4 17110442446979808131
6823239 73 18341617057196389926
81228 2 18056771922628174824
9709674 26 18342171215336003741

> <PUBCHEM_SHAPE_MULTIPOLES>
522.21
8.15
3.73
2.02
1.77
1.27
0.26
2.02
-2.65
2.24
0.98
-2.1
0.78
1.79

> <PUBCHEM_SHAPE_SELFOVERLAP>
1154.197

> <PUBCHEM_SHAPE_VOLUME>
279.3

> <PUBCHEM_COORDINATE_TYPE>
2
5
10

$$$$
