101289836
  -OEChem-03282423273D

 57 60  0     1  0  0  0  0  0999 V2000
    0.5191   -0.5847   -2.6460 O   0  0  0  0  0  0  0  0  0  0  0  0
    3.6153   -0.9618    1.9533 O   0  0  0  0  0  0  0  0  0  0  0  0
   -2.1344    2.6650    1.3409 O   0  0  0  0  0  0  0  0  0  0  0  0
   -3.6250    0.7493   -2.3514 O   0  0  0  0  0  0  0  0  0  0  0  0
   -3.5680    1.0551    2.1424 O   0  0  0  0  0  0  0  0  0  0  0  0
    0.1431   -2.1871    0.6702 N   0  0  2  0  0  0  0  0  0  0  0  0
    2.1673    0.9598   -2.0528 N   0  0  0  0  0  0  0  0  0  0  0  0
    0.6267   -0.7964    0.5923 C   0  0  1  0  0  0  0  0  0  0  0  0
    1.7391   -0.7839   -0.4882 C   0  0  2  0  0  0  0  0  0  0  0  0
   -0.4698    0.2810    0.5442 C   0  0  0  0  0  0  0  0  0  0  0  0
    2.1263   -2.2601   -0.6663 C   0  0  0  0  0  0  0  0  0  0  0  0
   -1.6997   -0.0810   -0.3015 C   0  0  1  0  0  0  0  0  0  0  0  0
   -2.1552   -1.5324   -0.0340 C   0  0  1  0  0  0  0  0  0  0  0  0
    1.3251   -3.0109    0.3917 C   0  0  0  0  0  0  0  0  0  0  0  0
   -0.9624   -2.4829   -0.2437 C   0  0  0  0  0  0  0  0  0  0  0  0
    2.9046    0.0934   -0.0801 C   0  0  0  0  0  0  0  0  0  0  0  0
    1.3530   -0.1601   -1.8608 C   0  0  0  0  0  0  0  0  0  0  0  0
   -2.7870   -1.7407    1.3512 C   0  0  0  0  0  0  0  0  0  0  0  0
    3.0845    1.1035   -1.0216 C   0  0  0  0  0  0  0  0  0  0  0  0
   -2.7977    0.9255   -0.1139 C   0  0  0  0  0  0  0  0  0  0  0  0
    3.7391    0.0198    1.0233 C   0  0  0  0  0  0  0  0  0  0  0  0
   -3.2354   -3.1755    1.5403 C   0  0  0  0  0  0  0  0  0  0  0  0
    4.0670    2.0674   -0.9078 C   0  0  0  0  0  0  0  0  0  0  0  0
    4.7431    0.9834    1.1635 C   0  0  0  0  0  0  0  0  0  0  0  0
   -2.8880    1.5373    1.2455 C   0  0  0  0  0  0  0  0  0  0  0  0
   -3.6548    1.2723   -1.0854 C   0  0  0  0  0  0  0  0  0  0  0  0
    4.9038    2.0006    0.2066 C   0  0  0  0  0  0  0  0  0  0  0  0
   -2.1579    3.3235    2.6120 C   0  0  0  0  0  0  0  0  0  0  0  0
   -4.9218    0.7208   -2.9238 C   0  0  0  0  0  0  0  0  0  0  0  0
    1.1119   -0.6297    1.5645 H   0  0  0  0  0  0  0  0  0  0  0  0
   -0.0433    1.2366    0.2143 H   0  0  0  0  0  0  0  0  0  0  0  0
   -0.7646    0.4258    1.5916 H   0  0  0  0  0  0  0  0  0  0  0  0
    3.1985   -2.4507   -0.5458 H   0  0  0  0  0  0  0  0  0  0  0  0
    1.8453   -2.6285   -1.6605 H   0  0  0  0  0  0  0  0  0  0  0  0
   -1.3924   -0.0300   -1.3505 H   0  0  0  0  0  0  0  0  0  0  0  0
   -2.9138   -1.7906   -0.7870 H   0  0  0  0  0  0  0  0  0  0  0  0
    1.0804   -4.0327    0.0810 H   0  0  0  0  0  0  0  0  0  0  0  0
    1.9167   -3.0965    1.3112 H   0  0  0  0  0  0  0  0  0  0  0  0
   -1.2735   -3.5260   -0.1232 H   0  0  0  0  0  0  0  0  0  0  0  0
   -0.6393   -2.4061   -1.2889 H   0  0  0  0  0  0  0  0  0  0  0  0
   -2.1217   -1.4464    2.1688 H   0  0  0  0  0  0  0  0  0  0  0  0
   -3.6987   -1.1436    1.4223 H   0  0  0  0  0  0  0  0  0  0  0  0
    2.1341    1.5681   -2.8623 H   0  0  0  0  0  0  0  0  0  0  0  0
   -3.8120   -3.5382    0.6832 H   0  0  0  0  0  0  0  0  0  0  0  0
   -3.8773   -3.2486    2.4252 H   0  0  0  0  0  0  0  0  0  0  0  0
   -2.3915   -3.8504    1.7103 H   0  0  0  0  0  0  0  0  0  0  0  0
    4.1939    2.8448   -1.6526 H   0  0  0  0  0  0  0  0  0  0  0  0
    5.4170    0.9568    2.0167 H   0  0  0  0  0  0  0  0  0  0  0  0
   -4.4336    2.0081   -0.9315 H   0  0  0  0  0  0  0  0  0  0  0  0
    5.6916    2.7380    0.3351 H   0  0  0  0  0  0  0  0  0  0  0  0
    4.2932   -0.8367    2.6394 H   0  0  0  0  0  0  0  0  0  0  0  0
   -1.5157    4.2060    2.5493 H   0  0  0  0  0  0  0  0  0  0  0  0
   -1.7675    2.6593    3.3889 H   0  0  0  0  0  0  0  0  0  0  0  0
   -3.1755    3.6454    2.8529 H   0  0  0  0  0  0  0  0  0  0  0  0
   -4.8527    0.2306   -3.8995 H   0  0  0  0  0  0  0  0  0  0  0  0
   -5.3042    1.7353   -3.0810 H   0  0  0  0  0  0  0  0  0  0  0  0
   -5.6158    0.1442   -2.3020 H   0  0  0  0  0  0  0  0  0  0  0  0
  1 17  2  0  0  0  0
  2 21  1  0  0  0  0
  2 51  1  0  0  0  0
  3 25  1  0  0  0  0
  3 28  1  0  0  0  0
  4 26  1  0  0  0  0
  4 29  1  0  0  0  0
  5 25  2  0  0  0  0
  6  8  1  0  0  0  0
  6 14  1  0  0  0  0
  6 15  1  0  0  0  0
  7 17  1  0  0  0  0
  7 19  1  0  0  0  0
  7 43  1  0  0  0  0
  8  9  1  0  0  0  0
  8 10  1  0  0  0  0
  8 30  1  0  0  0  0
  9 11  1  0  0  0  0
  9 16  1  0  0  0  0
  9 17  1  0  0  0  0
 10 12  1  0  0  0  0
 10 31  1  0  0  0  0
 10 32  1  0  0  0  0
 11 14  1  0  0  0  0
 11 33  1  0  0  0  0
 11 34  1  0  0  0  0
 12 13  1  0  0  0  0
 12 20  1  0  0  0  0
 12 35  1  0  0  0  0
 13 15  1  0  0  0  0
 13 18  1  0  0  0  0
 13 36  1  0  0  0  0
 14 37  1  0  0  0  0
 14 38  1  0  0  0  0
 15 39  1  0  0  0  0
 15 40  1  0  0  0  0
 16 19  2  0  0  0  0
 16 21  1  0  0  0  0
 18 22  1  0  0  0  0
 18 41  1  0  0  0  0
 18 42  1  0  0  0  0
 19 23  1  0  0  0  0
 20 25  1  0  0  0  0
 20 26  2  0  0  0  0
 21 24  2  0  0  0  0
 22 44  1  0  0  0  0
 22 45  1  0  0  0  0
 22 46  1  0  0  0  0
 23 27  2  0  0  0  0
 23 47  1  0  0  0  0
 24 27  1  0  0  0  0
 24 48  1  0  0  0  0
 26 49  1  0  0  0  0
 27 50  1  0  0  0  0
 28 52  1  0  0  0  0
 28 53  1  0  0  0  0
 28 54  1  0  0  0  0
 29 55  1  0  0  0  0
 29 56  1  0  0  0  0
 29 57  1  0  0  0  0
M  END
> <PUBCHEM_COMPOUND_CID>
101289836

> <PUBCHEM_CONFORMER_RMSD>
0.8

> <PUBCHEM_CONFORMER_DIVERSEORDER>
1
8
13
6
11
7
15
16
5
14
4
12
2
9
10
3

> <PUBCHEM_MMFF94_PARTIAL_CHARGES>
30
1 -0.57
12 0.14
14 0.27
15 0.27
16 -0.14
17 0.57
19 0.12
2 -0.53
20 -0.12
21 0.08
23 -0.15
24 -0.15
25 0.71
26 -0.07
27 -0.15
28 0.28
29 0.28
3 -0.43
4 -0.36
43 0.37
47 0.15
48 0.15
49 0.15
5 -0.57
50 0.15
51 0.45
6 -0.81
7 -0.55
8 0.27
9 0.2

> <PUBCHEM_EFFECTIVE_ROTOR_COUNT>
6.4

> <PUBCHEM_PHARMACOPHORE_FEATURES>
11
1 1 acceptor
1 2 donor
1 22 hydrophobe
1 4 acceptor
1 5 acceptor
1 6 cation
1 7 donor
5 6 8 9 11 14 rings
5 7 9 16 17 19 rings
6 16 19 21 23 24 27 rings
6 6 8 10 12 13 15 rings

> <PUBCHEM_HEAVY_ATOM_COUNT>
29

> <PUBCHEM_ATOM_DEF_STEREO_COUNT>
4

> <PUBCHEM_ATOM_UDEF_STEREO_COUNT>
0

> <PUBCHEM_BOND_DEF_STEREO_COUNT>
1

> <PUBCHEM_BOND_UDEF_STEREO_COUNT>
0

> <PUBCHEM_ISOTOPIC_ATOM_COUNT>
0

> <PUBCHEM_COMPONENT_COUNT>
1

> <PUBCHEM_CACTVS_TAUTO_COUNT>
13

> <PUBCHEM_CONFORMER_ID>
06098F6C00000001

> <PUBCHEM_MMFF94_ENERGY>
99.2952

> <PUBCHEM_FEATURE_SELFOVERLAP>
56.065

> <PUBCHEM_SHAPE_FINGERPRINT>
11370993 70 18187632596603981231
11582403 64 16269921612287066642
11640471 11 18334580157077482464
11725454 13 16844990395701633258
12160290 23 18045524128960768079
12173636 292 18199487501405633041
12633257 1 18261949631808867642
12655364 131 17973689573244500298
12788726 201 17906761406369338369
12892183 10 17605268678604680266
13140716 1 18336839588879741698
13224815 77 18335714848397284274
13583140 156 18264757930276924608
13965767 371 18042133072139661524
14178342 30 18337409187252113280
15163728 17 18197804239556569908
17349148 13 18338504257862586503
18981168 100 18196961922753792859
20510252 161 18266189506995242506
20715895 44 17896862293158725333
21864079 5 17985841336598444177
22149856 69 18191895387265536035
22749437 52 18337671923265652640
235170 7 15769769161057229548
23557571 272 18126873657078124719
23558518 356 18125725591341069763
23559900 14 18410858720805418390
469060 322 17898310521918559795
474 4 18338800009453202456
57527585 21 17845386590356920565
5895379 119 16410708367816458808
633830 44 18201733825014787524
9981440 41 18272640234283388250

> <PUBCHEM_SHAPE_MULTIPOLES>
557.5
8.97
3.38
2.5
2.92
0.77
0.77
-4.82
0.49
-1.64
-1.9
-2.4
-1.26
-0.02

> <PUBCHEM_SHAPE_SELFOVERLAP>
1203.314

> <PUBCHEM_SHAPE_VOLUME>
306.6

> <PUBCHEM_COORDINATE_TYPE>
2
5
10

$$$$
