11741588
  -OEChem-03312423413D

 59 62  0     1  0  0  0  0  0999 V2000
    5.0832   -0.6365   -1.2091 O   0  0  0  0  0  0  0  0  0  0  0  0
   -4.5284    2.3602   -0.7132 O   0  0  0  0  0  0  0  0  0  0  0  0
   -4.2336   -1.1010    1.4761 O   0  0  0  0  0  0  0  0  0  0  0  0
   -2.2847    2.7776   -0.4276 O   0  0  0  0  0  0  0  0  0  0  0  0
   -0.0714   -2.3185    0.5546 N   0  0  1  0  0  0  0  0  0  0  0  0
    1.4854    1.0354    1.2438 N   0  0  0  0  0  0  0  0  0  0  0  0
    0.0578   -1.0917    1.3881 C   0  0  2  0  0  0  0  0  0  0  0  0
   -2.0255   -1.3576   -0.6875 C   0  0  2  0  0  0  0  0  0  0  0  0
   -1.8814   -0.0331    0.0905 C   0  0  2  0  0  0  0  0  0  0  0  0
   -1.2641   -0.3154    1.4655 C   0  0  0  0  0  0  0  0  0  0  0  0
   -0.6637   -2.0701   -0.7693 C   0  0  0  0  0  0  0  0  0  0  0  0
    1.2430   -0.2777    0.9561 C   0  0  0  0  0  0  0  0  0  0  0  0
    1.2323   -3.0187    0.4354 C   0  0  0  0  0  0  0  0  0  0  0  0
    2.3202   -0.7699    0.2471 C   0  0  0  0  0  0  0  0  0  0  0  0
    2.3645   -2.1859   -0.2167 C   0  0  0  0  0  0  0  0  0  0  0  0
   -2.5744   -1.1397   -2.1026 C   0  0  0  0  0  0  0  0  0  0  0  0
   -3.1887    0.6803    0.2691 C   0  0  0  0  0  0  0  0  0  0  0  0
    3.2439    0.2951    0.0696 C   0  0  0  0  0  0  0  0  0  0  0  0
    2.6961    1.4156    0.7033 C   0  0  0  0  0  0  0  0  0  0  0  0
   -2.7904   -2.4591   -2.8108 C   0  0  0  0  0  0  0  0  0  0  0  0
    4.4946    0.4209   -0.5674 C   0  0  0  0  0  0  0  0  0  0  0  0
   -3.2636    2.0495   -0.3223 C   0  0  0  0  0  0  0  0  0  0  0  0
   -4.2380    0.1477    0.9125 C   0  0  0  0  0  0  0  0  0  0  0  0
    3.3427    2.6564    0.7308 C   0  0  0  0  0  0  0  0  0  0  0  0
    5.1508    1.6569   -0.5477 C   0  0  0  0  0  0  0  0  0  0  0  0
    4.5819    2.7561    0.0922 C   0  0  0  0  0  0  0  0  0  0  0  0
    5.9414   -1.4614   -0.4297 C   0  0  0  0  0  0  0  0  0  0  0  0
   -4.6989    3.6574   -1.2947 C   0  0  0  0  0  0  0  0  0  0  0  0
   -5.5311   -1.6725    1.4636 C   0  0  0  0  0  0  0  0  0  0  0  0
    0.2789   -1.4246    2.4128 H   0  0  0  0  0  0  0  0  0  0  0  0
   -2.7070   -2.0349   -0.1577 H   0  0  0  0  0  0  0  0  0  0  0  0
   -1.1821    0.6025   -0.4687 H   0  0  0  0  0  0  0  0  0  0  0  0
   -1.9400   -0.9186    2.0833 H   0  0  0  0  0  0  0  0  0  0  0  0
   -1.1263    0.6256    2.0138 H   0  0  0  0  0  0  0  0  0  0  0  0
   -0.7898   -3.0474   -1.2467 H   0  0  0  0  0  0  0  0  0  0  0  0
    0.0076   -1.4847   -1.4097 H   0  0  0  0  0  0  0  0  0  0  0  0
    1.1071   -3.9600   -0.1140 H   0  0  0  0  0  0  0  0  0  0  0  0
    1.5480   -3.3131    1.4457 H   0  0  0  0  0  0  0  0  0  0  0  0
    2.2607   -2.2075   -1.3080 H   0  0  0  0  0  0  0  0  0  0  0  0
    3.3261   -2.6450    0.0320 H   0  0  0  0  0  0  0  0  0  0  0  0
   -1.8997   -0.5073   -2.6917 H   0  0  0  0  0  0  0  0  0  0  0  0
   -3.5389   -0.6218   -2.0587 H   0  0  0  0  0  0  0  0  0  0  0  0
    0.8760    1.6449    1.7715 H   0  0  0  0  0  0  0  0  0  0  0  0
   -1.8487   -2.9245   -3.1156 H   0  0  0  0  0  0  0  0  0  0  0  0
   -3.3513   -3.1662   -2.1913 H   0  0  0  0  0  0  0  0  0  0  0  0
   -3.3672   -2.2944   -3.7276 H   0  0  0  0  0  0  0  0  0  0  0  0
   -5.1717    0.6763    1.0556 H   0  0  0  0  0  0  0  0  0  0  0  0
    2.9014    3.5133    1.2288 H   0  0  0  0  0  0  0  0  0  0  0  0
    6.1157    1.7668   -1.0368 H   0  0  0  0  0  0  0  0  0  0  0  0
    5.1090    3.7068    0.0954 H   0  0  0  0  0  0  0  0  0  0  0  0
    6.8965   -0.9527   -0.2658 H   0  0  0  0  0  0  0  0  0  0  0  0
    6.1282   -2.3852   -0.9842 H   0  0  0  0  0  0  0  0  0  0  0  0
    5.4898   -1.7161    0.5344 H   0  0  0  0  0  0  0  0  0  0  0  0
   -4.0951    3.7473   -2.2028 H   0  0  0  0  0  0  0  0  0  0  0  0
   -4.4303    4.4342   -0.5724 H   0  0  0  0  0  0  0  0  0  0  0  0
   -5.7528    3.7745   -1.5607 H   0  0  0  0  0  0  0  0  0  0  0  0
   -5.4572   -2.6925    1.8522 H   0  0  0  0  0  0  0  0  0  0  0  0
   -5.9298   -1.7253    0.4442 H   0  0  0  0  0  0  0  0  0  0  0  0
   -6.2140   -1.1120    2.1115 H   0  0  0  0  0  0  0  0  0  0  0  0
  1 21  1  0  0  0  0
  1 27  1  0  0  0  0
  2 22  1  0  0  0  0
  2 28  1  0  0  0  0
  3 23  1  0  0  0  0
  3 29  1  0  0  0  0
  4 22  2  0  0  0  0
  5  7  1  0  0  0  0
  5 11  1  0  0  0  0
  5 13  1  0  0  0  0
  6 12  1  0  0  0  0
  6 19  1  0  0  0  0
  6 43  1  0  0  0  0
  7 10  1  0  0  0  0
  7 12  1  0  0  0  0
  7 30  1  0  0  0  0
  8  9  1  0  0  0  0
  8 11  1  0  0  0  0
  8 16  1  0  0  0  0
  8 31  1  0  0  0  0
  9 10  1  0  0  0  0
  9 17  1  0  0  0  0
  9 32  1  0  0  0  0
 10 33  1  0  0  0  0
 10 34  1  0  0  0  0
 11 35  1  0  0  0  0
 11 36  1  0  0  0  0
 12 14  2  0  0  0  0
 13 15  1  0  0  0  0
 13 37  1  0  0  0  0
 13 38  1  0  0  0  0
 14 15  1  0  0  0  0
 14 18  1  0  0  0  0
 15 39  1  0  0  0  0
 15 40  1  0  0  0  0
 16 20  1  0  0  0  0
 16 41  1  0  0  0  0
 16 42  1  0  0  0  0
 17 22  1  0  0  0  0
 17 23  2  0  0  0  0
 18 19  2  0  0  0  0
 18 21  1  0  0  0  0
 19 24  1  0  0  0  0
 20 44  1  0  0  0  0
 20 45  1  0  0  0  0
 20 46  1  0  0  0  0
 21 25  2  0  0  0  0
 23 47  1  0  0  0  0
 24 26  2  0  0  0  0
 24 48  1  0  0  0  0
 25 26  1  0  0  0  0
 25 49  1  0  0  0  0
 26 50  1  0  0  0  0
 27 51  1  0  0  0  0
 27 52  1  0  0  0  0
 27 53  1  0  0  0  0
 28 54  1  0  0  0  0
 28 55  1  0  0  0  0
 28 56  1  0  0  0  0
 29 57  1  0  0  0  0
 29 58  1  0  0  0  0
 29 59  1  0  0  0  0
M  END
> <PUBCHEM_COMPOUND_CID>
11741588

> <PUBCHEM_CONFORMER_RMSD>
0.8

> <PUBCHEM_CONFORMER_DIVERSEORDER>
1
12
42
9
3
19
28
5
41
4
22
13
6
43
26
25
38
10
21
29
16
27
37
45
36
32
31
14
34
18
2
33
39
44
35
20
40
17
24
15
23
8
7
11
30

> <PUBCHEM_MMFF94_PARTIAL_CHARGES>
29
1 -0.36
11 0.27
12 -0.33
13 0.27
14 -0.18
15 0.18
17 -0.12
19 -0.15
2 -0.43
21 0.08
22 0.71
23 -0.07
24 -0.15
25 -0.15
26 -0.15
27 0.28
28 0.28
29 0.28
3 -0.36
4 -0.57
43 0.27
47 0.15
48 0.15
49 0.15
5 -0.81
50 0.15
6 0.03
7 0.45
9 0.14

> <PUBCHEM_EFFECTIVE_ROTOR_COUNT>
7.2

> <PUBCHEM_PHARMACOPHORE_FEATURES>
11
1 1 acceptor
1 20 hydrophobe
1 3 acceptor
1 4 acceptor
1 5 cation
1 6 cation
1 6 donor
5 6 12 14 18 19 rings
6 18 19 21 24 25 26 rings
6 5 7 12 13 14 15 rings
6 5 7 8 9 10 11 rings

> <PUBCHEM_HEAVY_ATOM_COUNT>
29

> <PUBCHEM_ATOM_DEF_STEREO_COUNT>
3

> <PUBCHEM_ATOM_UDEF_STEREO_COUNT>
0

> <PUBCHEM_BOND_DEF_STEREO_COUNT>
1

> <PUBCHEM_BOND_UDEF_STEREO_COUNT>
0

> <PUBCHEM_ISOTOPIC_ATOM_COUNT>
0

> <PUBCHEM_COMPONENT_COUNT>
1

> <PUBCHEM_CACTVS_TAUTO_COUNT>
1

> <PUBCHEM_CONFORMER_ID>
00B3299400000001

> <PUBCHEM_MMFF94_ENERGY>
80.3408

> <PUBCHEM_FEATURE_SELFOVERLAP>
56.068

> <PUBCHEM_SHAPE_FINGERPRINT>
10190108 129 18055359295728157875
10871710 139 18339067311512642277
11578080 2 16371836345724107247
12173636 292 18262237836377234714
12403259 415 18408890641745586360
13583140 156 18264773156226366611
13944108 23 17402608550393782901
14251751 93 18343019995046430012
14747282 140 15883787782740486053
14840074 17 18271806882807300935
15575132 122 18410006663691748637
17980427 26 17606665943109118075
20511986 3 17988911294197783626
21033648 29 18410006667528254232
21279426 13 18338243644328029246
21756936 100 18261670462849851538
21864079 5 18336535084193099776
221357 26 18412549833511917768
22393880 68 18272643559057086278
23227448 37 18341615974585128031
23559900 14 18047183051831642979
2747138 104 17823153378990402953
2838139 119 18263074431798433205
340366 18 17915169122837776598
350125 39 18410865355769962851
46194498 28 18200889434439119462
469060 322 16009028414952791533
5252454 2 18202561804509927169
633830 44 18187641419015257634
7288768 16 17748825215678129057

> <PUBCHEM_SHAPE_MULTIPOLES>
563.37
12.03
3.79
1.69
4.02
1.86
-0.67
4.81
-1.52
-1.58
-1.17
-2.05
-0.85
1.15

> <PUBCHEM_SHAPE_SELFOVERLAP>
1207.936

> <PUBCHEM_SHAPE_VOLUME>
310.1

> <PUBCHEM_COORDINATE_TYPE>
2
5
10

$$$$
