44301701
  -OEChem-04012400063D

 60 63  0     1  0  0  0  0  0999 V2000
    2.5111    1.3251    2.0477 O   0  0  0  0  0  0  0  0  0  0  0  0
    4.7149   -0.6224    1.8188 O   0  0  0  0  0  0  0  0  0  0  0  0
   -1.4904   -2.8556   -0.5327 O   0  0  0  0  0  0  0  0  0  0  0  0
   -4.3846   -1.1265    2.3236 O   0  0  0  0  0  0  0  0  0  0  0  0
   -3.0406   -1.8637   -1.9121 O   0  0  0  0  0  0  0  0  0  0  0  0
   -0.8783    2.4307   -0.2254 N   0  0  2  0  0  0  0  0  0  0  0  0
    1.5409    0.8735   -1.3244 N   0  0  0  0  0  0  0  0  0  0  0  0
   -0.1491    1.3509    0.4506 C   0  0  2  0  0  0  0  0  0  0  0  0
    1.2706    1.5723   -0.0700 C   0  0  2  0  0  0  0  0  0  0  0  0
   -0.8125   -0.0021    0.1856 C   0  0  0  0  0  0  0  0  0  0  0  0
    1.3692    3.0928   -0.2701 C   0  0  0  0  0  0  0  0  0  0  0  0
   -2.2850    0.0424    0.6453 C   0  0  1  0  0  0  0  0  0  0  0  0
   -3.0331    1.2556    0.0217 C   0  0  1  0  0  0  0  0  0  0  0  0
   -0.0509    3.6182   -0.0394 C   0  0  0  0  0  0  0  0  0  0  0  0
   -2.2413    2.5593    0.2807 C   0  0  0  0  0  0  0  0  0  0  0  0
    2.3387    1.0303    0.8801 C   0  0  0  0  0  0  0  0  0  0  0  0
   -3.3170    1.0900   -1.4805 C   0  0  0  0  0  0  0  0  0  0  0  0
    3.1504    0.0721    0.1428 C   0  0  0  0  0  0  0  0  0  0  0  0
    2.6280    0.0316   -1.1469 C   0  0  0  0  0  0  0  0  0  0  0  0
   -2.9711   -1.2679    0.3990 C   0  0  0  0  0  0  0  0  0  0  0  0
   -4.0615    2.2880   -2.0270 C   0  0  0  0  0  0  0  0  0  0  0  0
    4.2290   -0.6836    0.5561 C   0  0  0  0  0  0  0  0  0  0  0  0
    3.2023   -0.8069   -2.0845 C   0  0  0  0  0  0  0  0  0  0  0  0
   -2.5215   -2.0147   -0.8134 C   0  0  0  0  0  0  0  0  0  0  0  0
   -3.9284   -1.7611    1.1984 C   0  0  0  0  0  0  0  0  0  0  0  0
    4.8078   -1.5268   -0.3911 C   0  0  0  0  0  0  0  0  0  0  0  0
    4.2990   -1.5886   -1.7009 C   0  0  0  0  0  0  0  0  0  0  0  0
    5.8367   -1.4525    2.1307 C   0  0  0  0  0  0  0  0  0  0  0  0
   -0.9898   -3.6169   -1.6372 C   0  0  0  0  0  0  0  0  0  0  0  0
   -5.7436   -1.4436    2.5744 C   0  0  0  0  0  0  0  0  0  0  0  0
   -0.1584    1.5241    1.5383 H   0  0  0  0  0  0  0  0  0  0  0  0
   -0.2657   -0.7826    0.7295 H   0  0  0  0  0  0  0  0  0  0  0  0
   -0.7412   -0.2371   -0.8824 H   0  0  0  0  0  0  0  0  0  0  0  0
    1.6999    3.3436   -1.2857 H   0  0  0  0  0  0  0  0  0  0  0  0
    2.0648    3.5674    0.4309 H   0  0  0  0  0  0  0  0  0  0  0  0
   -2.2568    0.2122    1.7322 H   0  0  0  0  0  0  0  0  0  0  0  0
   -4.0001    1.3533    0.5356 H   0  0  0  0  0  0  0  0  0  0  0  0
   -0.1370    4.0188    0.9786 H   0  0  0  0  0  0  0  0  0  0  0  0
   -0.3055    4.4118   -0.7488 H   0  0  0  0  0  0  0  0  0  0  0  0
   -2.7360    3.4304   -0.1585 H   0  0  0  0  0  0  0  0  0  0  0  0
   -2.2262    2.7485    1.3635 H   0  0  0  0  0  0  0  0  0  0  0  0
    1.0363    1.0023   -2.1878 H   0  0  0  0  0  0  0  0  0  0  0  0
   -2.4094    0.9150   -2.0664 H   0  0  0  0  0  0  0  0  0  0  0  0
   -3.9882    0.2406   -1.6261 H   0  0  0  0  0  0  0  0  0  0  0  0
   -4.8986    2.5789   -1.3841 H   0  0  0  0  0  0  0  0  0  0  0  0
   -4.4728    2.0475   -3.0138 H   0  0  0  0  0  0  0  0  0  0  0  0
   -3.4051    3.1515   -2.1690 H   0  0  0  0  0  0  0  0  0  0  0  0
    2.8177   -0.8651   -3.0975 H   0  0  0  0  0  0  0  0  0  0  0  0
   -4.4041   -2.7145    1.0074 H   0  0  0  0  0  0  0  0  0  0  0  0
    5.6589   -2.1668   -0.1812 H   0  0  0  0  0  0  0  0  0  0  0  0
    4.7631   -2.2532   -2.4252 H   0  0  0  0  0  0  0  0  0  0  0  0
    6.0897   -1.2734    3.1807 H   0  0  0  0  0  0  0  0  0  0  0  0
    6.7144   -1.1786    1.5356 H   0  0  0  0  0  0  0  0  0  0  0  0
    5.5870   -2.5145    2.0349 H   0  0  0  0  0  0  0  0  0  0  0  0
   -0.1762   -4.2495   -1.2725 H   0  0  0  0  0  0  0  0  0  0  0  0
   -0.5958   -2.9480   -2.4083 H   0  0  0  0  0  0  0  0  0  0  0  0
   -1.7779   -4.2571   -2.0447 H   0  0  0  0  0  0  0  0  0  0  0  0
   -6.0766   -0.8578    3.4363 H   0  0  0  0  0  0  0  0  0  0  0  0
   -5.8605   -2.5047    2.8206 H   0  0  0  0  0  0  0  0  0  0  0  0
   -6.3755   -1.1792    1.7190 H   0  0  0  0  0  0  0  0  0  0  0  0
  1 16  2  0  0  0  0
  2 22  1  0  0  0  0
  2 28  1  0  0  0  0
  3 24  1  0  0  0  0
  3 29  1  0  0  0  0
  4 25  1  0  0  0  0
  4 30  1  0  0  0  0
  5 24  2  0  0  0  0
  6  8  1  0  0  0  0
  6 14  1  0  0  0  0
  6 15  1  0  0  0  0
  7  9  1  0  0  0  0
  7 19  1  0  0  0  0
  7 42  1  0  0  0  0
  8  9  1  0  0  0  0
  8 10  1  0  0  0  0
  8 31  1  0  0  0  0
  9 11  1  0  0  0  0
  9 16  1  0  0  0  0
 10 12  1  0  0  0  0
 10 32  1  0  0  0  0
 10 33  1  0  0  0  0
 11 14  1  0  0  0  0
 11 34  1  0  0  0  0
 11 35  1  0  0  0  0
 12 13  1  0  0  0  0
 12 20  1  0  0  0  0
 12 36  1  0  0  0  0
 13 15  1  0  0  0  0
 13 17  1  0  0  0  0
 13 37  1  0  0  0  0
 14 38  1  0  0  0  0
 14 39  1  0  0  0  0
 15 40  1  0  0  0  0
 15 41  1  0  0  0  0
 16 18  1  0  0  0  0
 17 21  1  0  0  0  0
 17 43  1  0  0  0  0
 17 44  1  0  0  0  0
 18 19  2  0  0  0  0
 18 22  1  0  0  0  0
 19 23  1  0  0  0  0
 20 24  1  0  0  0  0
 20 25  2  0  0  0  0
 21 45  1  0  0  0  0
 21 46  1  0  0  0  0
 21 47  1  0  0  0  0
 22 26  2  0  0  0  0
 23 27  2  0  0  0  0
 23 48  1  0  0  0  0
 25 49  1  0  0  0  0
 26 27  1  0  0  0  0
 26 50  1  0  0  0  0
 27 51  1  0  0  0  0
 28 52  1  0  0  0  0
 28 53  1  0  0  0  0
 28 54  1  0  0  0  0
 29 55  1  0  0  0  0
 29 56  1  0  0  0  0
 29 57  1  0  0  0  0
 30 58  1  0  0  0  0
 30 59  1  0  0  0  0
 30 60  1  0  0  0  0
M  END
> <PUBCHEM_COMPOUND_CID>
44301701

> <PUBCHEM_CONFORMER_RMSD>
1

> <PUBCHEM_CONFORMER_DIVERSEORDER>
1
16
14
11
6
8
9
12
2
4
5
3
13
10
7
15

> <PUBCHEM_MMFF94_PARTIAL_CHARGES>
30
1 -0.57
12 0.14
14 0.27
15 0.27
16 0.42
18 0.09
19 0.1
2 -0.36
20 -0.12
22 0.08
23 -0.15
24 0.71
25 -0.07
26 -0.15
27 -0.15
28 0.28
29 0.28
3 -0.43
30 0.28
4 -0.36
42 0.4
48 0.15
49 0.15
5 -0.57
50 0.15
51 0.15
6 -0.81
7 -0.87
8 0.27
9 0.43

> <PUBCHEM_EFFECTIVE_ROTOR_COUNT>
7.4

> <PUBCHEM_PHARMACOPHORE_FEATURES>
12
1 1 acceptor
1 2 acceptor
1 21 hydrophobe
1 4 acceptor
1 5 acceptor
1 6 cation
1 7 cation
1 7 donor
5 6 8 9 11 14 rings
5 7 9 16 18 19 rings
6 18 19 22 23 26 27 rings
6 6 8 10 12 13 15 rings

> <PUBCHEM_HEAVY_ATOM_COUNT>
30

> <PUBCHEM_ATOM_DEF_STEREO_COUNT>
4

> <PUBCHEM_ATOM_UDEF_STEREO_COUNT>
0

> <PUBCHEM_BOND_DEF_STEREO_COUNT>
1

> <PUBCHEM_BOND_UDEF_STEREO_COUNT>
0

> <PUBCHEM_ISOTOPIC_ATOM_COUNT>
0

> <PUBCHEM_COMPONENT_COUNT>
1

> <PUBCHEM_CACTVS_TAUTO_COUNT>
5

> <PUBCHEM_CONFORMER_ID>
02A3FD8500000001

> <PUBCHEM_MMFF94_ENERGY>
106.3591

> <PUBCHEM_FEATURE_SELFOVERLAP>
61.079

> <PUBCHEM_SHAPE_FINGERPRINT>
10928967 22 18188502361899786419
11135609 12 18335989752153725072
11796584 16 17896315818910561882
11991303 11 16805593739227796255
12156800 1 12125126584469662419
12403259 327 16343718650245604723
12422481 6 18129685048808982227
12553582 1 18340778121208361662
12633257 1 17703791452745161690
12714826 92 18259993686316872829
13140716 1 18409452483529243833
13726171 33 18119845514609135028
1813 80 18337120054317240744
20511986 3 17677599892335182836
20600515 1 18338795603107621456
20764821 26 18343017817513972543
21033648 29 17845936225641991312
21421861 104 18265905833269608856
23559900 14 18341054009013018380
3027735 51 17910109110350027301
3052486 1 18335985286020499534
3383291 50 18340476791109648231
44062 13 17967250867131419745
5104073 3 18409451379717355112
56633871 153 18201173104297845911
57527293 21 18131345345858115274
7970288 3 18186804720188902202
9709674 26 18059566950058296044

> <PUBCHEM_SHAPE_MULTIPOLES>
578.08
10.8
3.81
2.25
4.28
0.75
0.38
-6.6
4.67
-2.48
-1.01
-0.48
-1.17
1.58

> <PUBCHEM_SHAPE_SELFOVERLAP>
1242.906

> <PUBCHEM_SHAPE_VOLUME>
320.8

> <PUBCHEM_COORDINATE_TYPE>
2
5
10

$$$$
