5379743
  -OEChem-04012400103D

 57 60  0     1  0  0  0  0  0999 V2000
    1.5798    0.9056    2.8171 O   0  0  0  0  0  0  0  0  0  0  0  0
    3.1251    0.3266   -2.4871 O   0  0  0  0  0  0  0  0  0  0  0  0
   -3.8632   -2.4755   -0.5991 O   0  0  0  0  0  0  0  0  0  0  0  0
   -4.1187   -1.4244    1.7109 O   0  0  0  0  0  0  0  0  0  0  0  0
   -3.5114   -0.8883   -2.2260 O   0  0  0  0  0  0  0  0  0  0  0  0
    0.4979    2.3065    0.1807 N   0  0  1  0  0  0  0  0  0  0  0  0
    2.8303   -0.9069    2.0137 N   0  0  0  0  0  0  0  0  0  0  0  0
    0.8173    0.9358   -0.2294 C   0  0  1  0  0  0  0  0  0  0  0  0
    2.1937    0.7374    0.4178 C   0  0  2  0  0  0  0  0  0  0  0  0
   -0.3070   -0.0147    0.1759 C   0  0  0  0  0  0  0  0  0  0  0  0
    2.8460    2.1299    0.3117 C   0  0  0  0  0  0  0  0  0  0  0  0
   -1.6400    0.4290   -0.4650 C   0  0  2  0  0  0  0  0  0  0  0  0
   -1.9167    1.9287   -0.1586 C   0  0  1  0  0  0  0  0  0  0  0  0
    1.7091    3.0771   -0.0897 C   0  0  0  0  0  0  0  0  0  0  0  0
   -0.6904    2.8075   -0.4996 C   0  0  0  0  0  0  0  0  0  0  0  0
    3.0070   -0.3714   -0.1959 C   0  0  0  0  0  0  0  0  0  0  0  0
    2.1316    0.2996    1.9104 C   0  0  0  0  0  0  0  0  0  0  0  0
   -3.1366    2.4670   -0.9166 C   0  0  0  0  0  0  0  0  0  0  0  0
    3.3441   -1.3020    0.7850 C   0  0  0  0  0  0  0  0  0  0  0  0
   -2.7396   -0.4846   -0.0028 C   0  0  0  0  0  0  0  0  0  0  0  0
    3.4191   -0.5618   -1.5037 C   0  0  0  0  0  0  0  0  0  0  0  0
   -3.4138    3.9097   -0.5510 C   0  0  0  0  0  0  0  0  0  0  0  0
    4.0859   -2.4356    0.5168 C   0  0  0  0  0  0  0  0  0  0  0  0
    4.1718   -1.7019   -1.8028 C   0  0  0  0  0  0  0  0  0  0  0  0
   -3.4064   -1.2854   -1.0725 C   0  0  0  0  0  0  0  0  0  0  0  0
   -3.1179   -0.5942    1.2792 C   0  0  0  0  0  0  0  0  0  0  0  0
    4.5019   -2.6314   -0.8006 C   0  0  0  0  0  0  0  0  0  0  0  0
   -4.5189   -3.3152   -1.5555 C   0  0  0  0  0  0  0  0  0  0  0  0
   -3.8801   -1.8670    3.0364 C   0  0  0  0  0  0  0  0  0  0  0  0
    0.8970    0.8956   -1.3236 H   0  0  0  0  0  0  0  0  0  0  0  0
   -0.4045   -0.0410    1.2677 H   0  0  0  0  0  0  0  0  0  0  0  0
   -0.0594   -1.0351   -0.1437 H   0  0  0  0  0  0  0  0  0  0  0  0
    3.6551    2.1807   -0.4247 H   0  0  0  0  0  0  0  0  0  0  0  0
    3.2712    2.4456    1.2725 H   0  0  0  0  0  0  0  0  0  0  0  0
   -1.5100    0.3378   -1.5522 H   0  0  0  0  0  0  0  0  0  0  0  0
   -2.1063    2.0383    0.9191 H   0  0  0  0  0  0  0  0  0  0  0  0
    1.7378    4.0059    0.4886 H   0  0  0  0  0  0  0  0  0  0  0  0
    1.8022    3.3279   -1.1540 H   0  0  0  0  0  0  0  0  0  0  0  0
   -0.5400    2.8431   -1.5869 H   0  0  0  0  0  0  0  0  0  0  0  0
   -0.8530    3.8338   -0.1549 H   0  0  0  0  0  0  0  0  0  0  0  0
   -4.0228    1.8739   -0.6641 H   0  0  0  0  0  0  0  0  0  0  0  0
   -2.9928    2.3800   -2.0001 H   0  0  0  0  0  0  0  0  0  0  0  0
    2.9573   -1.4326    2.8703 H   0  0  0  0  0  0  0  0  0  0  0  0
   -2.6917    4.5969   -1.0016 H   0  0  0  0  0  0  0  0  0  0  0  0
   -4.3992    4.2019   -0.9305 H   0  0  0  0  0  0  0  0  0  0  0  0
   -3.4202    4.0608    0.5332 H   0  0  0  0  0  0  0  0  0  0  0  0
    4.3396   -3.1494    1.2921 H   0  0  0  0  0  0  0  0  0  0  0  0
    4.5117   -1.8780   -2.8206 H   0  0  0  0  0  0  0  0  0  0  0  0
   -2.6629   -0.0180    2.0741 H   0  0  0  0  0  0  0  0  0  0  0  0
    5.0883   -3.5097   -1.0566 H   0  0  0  0  0  0  0  0  0  0  0  0
    2.7598    1.1400   -2.1072 H   0  0  0  0  0  0  0  0  0  0  0  0
   -5.4055   -2.8134   -1.9545 H   0  0  0  0  0  0  0  0  0  0  0  0
   -4.8327   -4.2298   -1.0455 H   0  0  0  0  0  0  0  0  0  0  0  0
   -3.8287   -3.5814   -2.3616 H   0  0  0  0  0  0  0  0  0  0  0  0
   -3.9295   -1.0322    3.7442 H   0  0  0  0  0  0  0  0  0  0  0  0
   -2.9131   -2.3765    3.1154 H   0  0  0  0  0  0  0  0  0  0  0  0
   -4.6636   -2.5827    3.3027 H   0  0  0  0  0  0  0  0  0  0  0  0
  1 17  2  0  0  0  0
  2 21  1  0  0  0  0
  2 51  1  0  0  0  0
  3 25  1  0  0  0  0
  3 28  1  0  0  0  0
  4 26  1  0  0  0  0
  4 29  1  0  0  0  0
  5 25  2  0  0  0  0
  6  8  1  0  0  0  0
  6 14  1  0  0  0  0
  6 15  1  0  0  0  0
  7 17  1  0  0  0  0
  7 19  1  0  0  0  0
  7 43  1  0  0  0  0
  8  9  1  0  0  0  0
  8 10  1  0  0  0  0
  8 30  1  0  0  0  0
  9 11  1  0  0  0  0
  9 16  1  0  0  0  0
  9 17  1  0  0  0  0
 10 12  1  0  0  0  0
 10 31  1  0  0  0  0
 10 32  1  0  0  0  0
 11 14  1  0  0  0  0
 11 33  1  0  0  0  0
 11 34  1  0  0  0  0
 12 13  1  0  0  0  0
 12 20  1  0  0  0  0
 12 35  1  0  0  0  0
 13 15  1  0  0  0  0
 13 18  1  0  0  0  0
 13 36  1  0  0  0  0
 14 37  1  0  0  0  0
 14 38  1  0  0  0  0
 15 39  1  0  0  0  0
 15 40  1  0  0  0  0
 16 19  2  0  0  0  0
 16 21  1  0  0  0  0
 18 22  1  0  0  0  0
 18 41  1  0  0  0  0
 18 42  1  0  0  0  0
 19 23  1  0  0  0  0
 20 25  1  0  0  0  0
 20 26  2  0  0  0  0
 21 24  2  0  0  0  0
 22 44  1  0  0  0  0
 22 45  1  0  0  0  0
 22 46  1  0  0  0  0
 23 27  2  0  0  0  0
 23 47  1  0  0  0  0
 24 27  1  0  0  0  0
 24 48  1  0  0  0  0
 26 49  1  0  0  0  0
 27 50  1  0  0  0  0
 28 52  1  0  0  0  0
 28 53  1  0  0  0  0
 28 54  1  0  0  0  0
 29 55  1  0  0  0  0
 29 56  1  0  0  0  0
 29 57  1  0  0  0  0
M  END
> <PUBCHEM_COMPOUND_CID>
5379743

> <PUBCHEM_CONFORMER_RMSD>
0.8

> <PUBCHEM_CONFORMER_DIVERSEORDER>
1
57
7
125
174
47
84
70
46
91
135
179
114
19
251
141
184
237
134
151
200
111
123
124
43
136
246
22
257
96
120
109
87
166
218
156
183
189
35
241
203
20
113
42
249
66
63
72
99
117
105
81
153
185
160
52
234
25
252
32
82
208
102
41
78
13
210
146
12
127
172
11
155
165
167
49
71
112
164
178
103
90
75
108
9
21
88
256
213
212
147
45
223
106
95
29
54
209
3
101
128
188
226
144
230
201
228
56
205
4
191
30
115
16
18
138
131
98
176
36
150
61
168
17
86
145
33
132
24
152
192
193
215
239
232
26
94
6
222
100
110
55
44
206
34
27
59
180
122
137
211
182
83
216
116
140
158
92
28
142
10
195
207
107
202
76
196
247
240
253
161
177
227
65
64
97
74
126
73
187
219
50
48
148
60
67
157
221
173
121
77
104
89
154
169
186
38
225
171
197
204
149
236
217
238
181
93
80
214
235
194
85
40
231
163
79
190
254
248
162
31
39
243
14
198
229
51
118
15
199
8
129
233
143
119
175
2
255
245
159
130
242
170
224
58
220
5
133
69
62
68
53
139
250
37
244
23

> <PUBCHEM_MMFF94_PARTIAL_CHARGES>
30
1 -0.57
12 0.14
14 0.27
15 0.27
16 -0.14
17 0.57
19 0.12
2 -0.53
20 -0.12
21 0.08
23 -0.15
24 -0.15
25 0.71
26 -0.07
27 -0.15
28 0.28
29 0.28
3 -0.43
4 -0.36
43 0.37
47 0.15
48 0.15
49 0.15
5 -0.57
50 0.15
51 0.45
6 -0.81
7 -0.55
8 0.27
9 0.2

> <PUBCHEM_EFFECTIVE_ROTOR_COUNT>
6.4

> <PUBCHEM_PHARMACOPHORE_FEATURES>
11
1 1 acceptor
1 2 donor
1 22 hydrophobe
1 4 acceptor
1 5 acceptor
1 6 cation
1 7 donor
5 6 8 9 11 14 rings
5 7 9 16 17 19 rings
6 16 19 21 23 24 27 rings
6 6 8 10 12 13 15 rings

> <PUBCHEM_HEAVY_ATOM_COUNT>
29

> <PUBCHEM_ATOM_DEF_STEREO_COUNT>
0

> <PUBCHEM_ATOM_UDEF_STEREO_COUNT>
4

> <PUBCHEM_BOND_DEF_STEREO_COUNT>
1

> <PUBCHEM_BOND_UDEF_STEREO_COUNT>
0

> <PUBCHEM_ISOTOPIC_ATOM_COUNT>
0

> <PUBCHEM_COMPONENT_COUNT>
1

> <PUBCHEM_CACTVS_TAUTO_COUNT>
13

> <PUBCHEM_CONFORMER_ID>
0052169F00000001

> <PUBCHEM_MMFF94_ENERGY>
87.2378

> <PUBCHEM_FEATURE_SELFOVERLAP>
55.998

> <PUBCHEM_SHAPE_FINGERPRINT>
107951 10 17753904805148785819
10928967 22 18340779186081481638
11578080 2 17702362096567745073
11796584 16 18126564510366098190
11991303 11 17823417103278911149
12160290 23 18188759545132222965
12363563 72 18336812178382237759
12422481 6 18131081433250513239
12553582 1 18409174332656506611
12596599 1 17917999399080326151
12633257 1 17131286691770718123
12714826 92 18269565961101193440
13103583 49 16271654386403469354
13140716 1 18337389340161473904
13690498 29 18337122184636850798
13726171 33 18052291477507393292
13911987 19 17466509331610970685
14114206 34 17677046850285588797
14251757 5 18046633304380796988
14429115 67 17845078744518006287
15664445 248 17978788244489916445
16752209 62 18262227829351211987
17492 89 18340756135186591815
17809404 112 18122310653879474071
19315092 285 16700019842939630383
20600515 1 18051385428354810768
20645477 70 18191854837419120535
20775530 9 18060132184538868630
21133410 62 14807093258855938150
21781051 124 18189340070461078165
22907989 373 16950280711393248279
23559900 14 18270385127392364092
2838139 119 12973898043618796102
3737641 26 18265070182677925240
44062 13 18267305339525149679
463206 1 17975970969308419906
57527585 21 12829788309713497527
70251023 43 18338514257079409483
9709674 26 18340754984088000493

> <PUBCHEM_SHAPE_MULTIPOLES>
557.5
9.71
4.09
2.3
0.86
1.48
-1.05
-7.77
1.74
3.32
0.99
0.56
-1.36
0.95

> <PUBCHEM_SHAPE_SELFOVERLAP>
1203.043

> <PUBCHEM_SHAPE_VOLUME>
307.9

> <PUBCHEM_COORDINATE_TYPE>
2
5
10

$$$$
