3037629
  -OEChem-03282423293D

 57 60  0     1  0  0  0  0  0999 V2000
    5.6019    1.1565   -0.2847 O   0  0  0  0  0  0  0  0  0  0  0  0
   -5.6297   -1.4919   -0.0067 O   0  0  0  0  0  0  0  0  0  0  0  0
   -2.5989   -0.1303   -2.4194 O   0  0  0  0  0  0  0  0  0  0  0  0
   -4.1631   -1.7716    1.7429 O   0  0  0  0  0  0  0  0  0  0  0  0
    0.0208    1.7889    0.3881 N   0  0  1  0  0  0  0  0  0  0  0  0
    1.8620   -1.4605    0.6752 N   0  0  0  0  0  0  0  0  0  0  0  0
    0.1028    0.3879    0.8863 C   0  0  1  0  0  0  0  0  0  0  0  0
   -0.9933   -0.4476    0.2108 C   0  0  0  0  0  0  0  0  0  0  0  0
   -2.3895    0.1331    0.4935 C   0  0  1  0  0  0  0  0  0  0  0  0
   -2.4360    1.6321    0.1251 C   0  0  2  0  0  0  0  0  0  0  0  0
   -1.2610    2.3975    0.7632 C   0  0  0  0  0  0  0  0  0  0  0  0
    1.4766   -0.1509    0.6252 C   0  0  0  0  0  0  0  0  0  0  0  0
    1.1617    2.6069    0.8543 C   0  0  0  0  0  0  0  0  0  0  0  0
    2.5907    0.6174    0.3603 C   0  0  0  0  0  0  0  0  0  0  0  0
    2.4974    2.0998    0.2613 C   0  0  0  0  0  0  0  0  0  0  0  0
   -3.4297   -0.6627   -0.2403 C   0  0  0  0  0  0  0  0  0  0  0  0
    3.6968   -0.2616    0.2106 C   0  0  0  0  0  0  0  0  0  0  0  0
   -3.7333    2.2675    0.5371 C   0  0  0  0  0  0  0  0  0  0  0  0
    3.2125   -1.5587    0.4126 C   0  0  0  0  0  0  0  0  0  0  0  0
    5.0658   -0.0864   -0.0741 C   0  0  0  0  0  0  0  0  0  0  0  0
   -4.4280   -1.3677    0.6177 C   0  0  0  0  0  0  0  0  0  0  0  0
   -3.4831   -0.7519   -1.5774 C   0  0  0  0  0  0  0  0  0  0  0  0
    4.0351   -2.6889    0.3436 C   0  0  0  0  0  0  0  0  0  0  0  0
   -4.5930    2.8346   -0.3160 C   0  0  0  0  0  0  0  0  0  0  0  0
    5.8983   -1.2088   -0.1472 C   0  0  0  0  0  0  0  0  0  0  0  0
    5.3888   -2.4892    0.0588 C   0  0  0  0  0  0  0  0  0  0  0  0
    5.6077    1.6329   -1.6253 C   0  0  0  0  0  0  0  0  0  0  0  0
   -6.6537   -2.1566    0.7412 C   0  0  0  0  0  0  0  0  0  0  0  0
   -2.4266   -0.8696   -3.6167 C   0  0  0  0  0  0  0  0  0  0  0  0
   -0.0521    0.3750    1.9750 H   0  0  0  0  0  0  0  0  0  0  0  0
   -0.7776   -0.5072   -0.8628 H   0  0  0  0  0  0  0  0  0  0  0  0
   -0.9571   -1.4804    0.5835 H   0  0  0  0  0  0  0  0  0  0  0  0
   -2.5540    0.0563    1.5777 H   0  0  0  0  0  0  0  0  0  0  0  0
   -2.3164    1.7539   -0.9592 H   0  0  0  0  0  0  0  0  0  0  0  0
   -1.2899    3.4362    0.4074 H   0  0  0  0  0  0  0  0  0  0  0  0
   -1.3668    2.4317    1.8565 H   0  0  0  0  0  0  0  0  0  0  0  0
    1.2111    2.5970    1.9516 H   0  0  0  0  0  0  0  0  0  0  0  0
    1.0347    3.6516    0.5451 H   0  0  0  0  0  0  0  0  0  0  0  0
    3.3321    2.5760    0.7870 H   0  0  0  0  0  0  0  0  0  0  0  0
    2.5572    2.3886   -0.7950 H   0  0  0  0  0  0  0  0  0  0  0  0
    1.2552   -2.2443    0.8726 H   0  0  0  0  0  0  0  0  0  0  0  0
   -3.9834    2.2623    1.5954 H   0  0  0  0  0  0  0  0  0  0  0  0
   -4.2378   -1.3256   -2.0999 H   0  0  0  0  0  0  0  0  0  0  0  0
    3.6403   -3.6865    0.5047 H   0  0  0  0  0  0  0  0  0  0  0  0
   -5.5149    3.2761    0.0462 H   0  0  0  0  0  0  0  0  0  0  0  0
   -4.3972    2.8683   -1.3820 H   0  0  0  0  0  0  0  0  0  0  0  0
    6.9564   -1.0864   -0.3663 H   0  0  0  0  0  0  0  0  0  0  0  0
    6.0535   -3.3471   -0.0020 H   0  0  0  0  0  0  0  0  0  0  0  0
    4.6063    1.5895   -2.0648 H   0  0  0  0  0  0  0  0  0  0  0  0
    6.3054    1.0467   -2.2316 H   0  0  0  0  0  0  0  0  0  0  0  0
    5.9410    2.6743   -1.6188 H   0  0  0  0  0  0  0  0  0  0  0  0
   -6.3497   -3.1824    0.9702 H   0  0  0  0  0  0  0  0  0  0  0  0
   -7.5575   -2.1871    0.1268 H   0  0  0  0  0  0  0  0  0  0  0  0
   -6.8715   -1.6029    1.6595 H   0  0  0  0  0  0  0  0  0  0  0  0
   -3.3519   -0.8899   -4.2028 H   0  0  0  0  0  0  0  0  0  0  0  0
   -2.0860   -1.8897   -3.4062 H   0  0  0  0  0  0  0  0  0  0  0  0
   -1.6579   -0.3724   -4.2158 H   0  0  0  0  0  0  0  0  0  0  0  0
  1 20  1  0  0  0  0
  1 27  1  0  0  0  0
  2 21  1  0  0  0  0
  2 28  1  0  0  0  0
  3 22  1  0  0  0  0
  3 29  1  0  0  0  0
  4 21  2  0  0  0  0
  5  7  1  0  0  0  0
  5 11  1  0  0  0  0
  5 13  1  0  0  0  0
  6 12  1  0  0  0  0
  6 19  1  0  0  0  0
  6 41  1  0  0  0  0
  7  8  1  0  0  0  0
  7 12  1  0  0  0  0
  7 30  1  0  0  0  0
  8  9  1  0  0  0  0
  8 31  1  0  0  0  0
  8 32  1  0  0  0  0
  9 10  1  0  0  0  0
  9 16  1  0  0  0  0
  9 33  1  0  0  0  0
 10 11  1  0  0  0  0
 10 18  1  0  0  0  0
 10 34  1  0  0  0  0
 11 35  1  0  0  0  0
 11 36  1  0  0  0  0
 12 14  2  0  0  0  0
 13 15  1  0  0  0  0
 13 37  1  0  0  0  0
 13 38  1  0  0  0  0
 14 15  1  0  0  0  0
 14 17  1  0  0  0  0
 15 39  1  0  0  0  0
 15 40  1  0  0  0  0
 16 21  1  0  0  0  0
 16 22  2  0  0  0  0
 17 19  2  0  0  0  0
 17 20  1  0  0  0  0
 18 24  2  0  0  0  0
 18 42  1  0  0  0  0
 19 23  1  0  0  0  0
 20 25  2  0  0  0  0
 22 43  1  0  0  0  0
 23 26  2  0  0  0  0
 23 44  1  0  0  0  0
 24 45  1  0  0  0  0
 24 46  1  0  0  0  0
 25 26  1  0  0  0  0
 25 47  1  0  0  0  0
 26 48  1  0  0  0  0
 27 49  1  0  0  0  0
 27 50  1  0  0  0  0
 27 51  1  0  0  0  0
 28 52  1  0  0  0  0
 28 53  1  0  0  0  0
 28 54  1  0  0  0  0
 29 55  1  0  0  0  0
 29 56  1  0  0  0  0
 29 57  1  0  0  0  0
M  END
> <PUBCHEM_COMPOUND_CID>
3037629

> <PUBCHEM_CONFORMER_RMSD>
0.8

> <PUBCHEM_CONFORMER_DIVERSEORDER>
1
20
10
14
18
5
12
9
19
8
17
13
11
16
6
3
7
15
2
4

> <PUBCHEM_MMFF94_PARTIAL_CHARGES>
35
1 -0.36
10 0.14
11 0.27
12 -0.33
13 0.27
14 -0.18
15 0.18
16 -0.12
18 -0.29
19 -0.15
2 -0.43
20 0.08
21 0.71
22 -0.07
23 -0.15
24 -0.3
25 -0.15
26 -0.15
27 0.28
28 0.28
29 0.28
3 -0.36
4 -0.57
41 0.27
42 0.15
43 0.15
44 0.15
45 0.15
46 0.15
47 0.15
48 0.15
5 -0.81
6 0.03
7 0.45
9 0.14

> <PUBCHEM_EFFECTIVE_ROTOR_COUNT>
7.2

> <PUBCHEM_PHARMACOPHORE_FEATURES>
11
1 1 acceptor
1 24 hydrophobe
1 3 acceptor
1 4 acceptor
1 5 cation
1 6 cation
1 6 donor
5 6 12 14 17 19 rings
6 17 19 20 23 25 26 rings
6 5 7 12 13 14 15 rings
6 5 7 8 9 10 11 rings

> <PUBCHEM_HEAVY_ATOM_COUNT>
29

> <PUBCHEM_ATOM_DEF_STEREO_COUNT>
3

> <PUBCHEM_ATOM_UDEF_STEREO_COUNT>
0

> <PUBCHEM_BOND_DEF_STEREO_COUNT>
1

> <PUBCHEM_BOND_UDEF_STEREO_COUNT>
0

> <PUBCHEM_ISOTOPIC_ATOM_COUNT>
0

> <PUBCHEM_COMPONENT_COUNT>
1

> <PUBCHEM_CACTVS_TAUTO_COUNT>
1

> <PUBCHEM_CONFORMER_ID>
002E59BD00000001

> <PUBCHEM_MMFF94_ENERGY>
76.9888

> <PUBCHEM_FEATURE_SELFOVERLAP>
56.017

> <PUBCHEM_SHAPE_FINGERPRINT>
10 15 10735877296419138391
10595046 47 18335425655823343528
10906281 52 17843695357069434289
10928967 22 17846207852623208782
12166972 35 17967819345013713014
12422481 6 17275114907427853871
12553582 1 18201144533710577946
13140716 1 18271525304203158617
13540713 4 18340469145899524409
14767858 380 18337118968560979084
14840074 17 17917995009343818023
15196674 1 18410294675302592088
15537594 2 18059856203072950446
17492 89 18411698790052831595
17844677 252 18410018723442762394
19303781 99 18197772207876080654
21236236 1 18410296878800007257
21267235 1 18412833498753020906
221357 26 18408885157024779283
221490 88 18410013243064700904
22393880 68 17895464835195993178
23402539 116 18339920403691928530
235170 7 17313097536572452310
23522609 53 18053980395638780217
23559900 14 18267859498223653296
314194 84 18343580759283939130
329604 57 18408326596707178402
350125 39 18410859871677104425
4073 2 18113909247103701354
439807 62 18407762543031616595
44880168 125 16774086158673895142
46194498 28 17458624583419306860
497634 4 18113338596326568071
5104073 3 18343016649683645368
70251023 43 18055892524327373693
7970288 3 18342733057188817495

> <PUBCHEM_SHAPE_MULTIPOLES>
563.37
14.68
3.18
1.69
3.1
0.84
-2.1
-6.83
-0.74
-0.78
0.6
-1.83
-0.54
-0.47

> <PUBCHEM_SHAPE_SELFOVERLAP>
1211.179

> <PUBCHEM_SHAPE_VOLUME>
309.7

> <PUBCHEM_COORDINATE_TYPE>
2
5
10

$$$$
