15560576
  -OEChem-03282423293D

 59 62  0     1  0  0  0  0  0999 V2000
    5.2136    0.6096    0.9476 O   0  0  0  0  0  0  0  0  0  0  0  0
   -4.5453   -2.3915    1.0068 O   0  0  0  0  0  0  0  0  0  0  0  0
   -3.8975    0.3340   -1.9258 O   0  0  0  0  0  0  0  0  0  0  0  0
   -2.5424   -1.9453    2.0455 O   0  0  0  0  0  0  0  0  0  0  0  0
   -0.0740    2.3227   -0.3231 N   0  0  1  0  0  0  0  0  0  0  0  0
    1.4673   -0.9563   -1.3475 N   0  0  0  0  0  0  0  0  0  0  0  0
    0.0007    1.1481   -1.2382 C   0  0  2  0  0  0  0  0  0  0  0  0
   -1.9403    1.2878    0.9964 C   0  0  1  0  0  0  0  0  0  0  0  0
   -1.8393    0.0084    0.1361 C   0  0  2  0  0  0  0  0  0  0  0  0
   -1.3126    0.3471   -1.2656 C   0  0  0  0  0  0  0  0  0  0  0  0
   -0.5685    1.9852    1.0219 C   0  0  0  0  0  0  0  0  0  0  0  0
    1.2274    0.3288   -0.9504 C   0  0  0  0  0  0  0  0  0  0  0  0
    1.2288    3.0297   -0.2545 C   0  0  0  0  0  0  0  0  0  0  0  0
    2.3480    0.7910   -0.2897 C   0  0  0  0  0  0  0  0  0  0  0  0
    2.4092    2.1726    0.2658 C   0  0  0  0  0  0  0  0  0  0  0  0
   -3.0392    2.2630    0.5470 C   0  0  0  0  0  0  0  0  0  0  0  0
   -3.1305   -0.7516    0.0629 C   0  0  0  0  0  0  0  0  0  0  0  0
    3.2970   -0.2662   -0.2550 C   0  0  0  0  0  0  0  0  0  0  0  0
    2.7194   -1.3500   -0.9246 C   0  0  0  0  0  0  0  0  0  0  0  0
   -3.1159    3.4656    1.4656 C   0  0  0  0  0  0  0  0  0  0  0  0
    4.5931   -0.4119    0.2786 C   0  0  0  0  0  0  0  0  0  0  0  0
   -3.3541   -1.7513    1.1495 C   0  0  0  0  0  0  0  0  0  0  0  0
   -4.0423   -0.5658   -0.9028 C   0  0  0  0  0  0  0  0  0  0  0  0
    3.3798   -2.5734   -1.0870 C   0  0  0  0  0  0  0  0  0  0  0  0
    5.2632   -1.6307    0.1240 C   0  0  0  0  0  0  0  0  0  0  0  0
    4.6639   -2.6935   -0.5486 C   0  0  0  0  0  0  0  0  0  0  0  0
    5.0071    0.6729    2.3539 C   0  0  0  0  0  0  0  0  0  0  0  0
   -4.8487   -3.3714    2.0056 C   0  0  0  0  0  0  0  0  0  0  0  0
   -4.5678   -0.1077   -3.0944 C   0  0  0  0  0  0  0  0  0  0  0  0
    0.1419    1.5467   -2.2540 H   0  0  0  0  0  0  0  0  0  0  0  0
   -2.1707    0.9816    2.0270 H   0  0  0  0  0  0  0  0  0  0  0  0
   -1.0801   -0.6437    0.5904 H   0  0  0  0  0  0  0  0  0  0  0  0
   -1.9674    1.0320   -1.8040 H   0  0  0  0  0  0  0  0  0  0  0  0
   -1.2114   -0.5573   -1.8780 H   0  0  0  0  0  0  0  0  0  0  0  0
   -0.6002    2.8844    1.6455 H   0  0  0  0  0  0  0  0  0  0  0  0
    0.1312    1.3111    1.5334 H   0  0  0  0  0  0  0  0  0  0  0  0
    1.1349    3.9348    0.3583 H   0  0  0  0  0  0  0  0  0  0  0  0
    1.4703    3.3875   -1.2647 H   0  0  0  0  0  0  0  0  0  0  0  0
    2.3698    2.1214    1.3599 H   0  0  0  0  0  0  0  0  0  0  0  0
    3.3544    2.6536   -0.0093 H   0  0  0  0  0  0  0  0  0  0  0  0
   -4.0154    1.7687    0.5856 H   0  0  0  0  0  0  0  0  0  0  0  0
   -2.8922    2.6096   -0.4808 H   0  0  0  0  0  0  0  0  0  0  0  0
    0.8292   -1.5389   -1.8716 H   0  0  0  0  0  0  0  0  0  0  0  0
   -3.1316    3.1716    2.5199 H   0  0  0  0  0  0  0  0  0  0  0  0
   -2.2883    4.1622    1.3035 H   0  0  0  0  0  0  0  0  0  0  0  0
   -4.0368    4.0242    1.2649 H   0  0  0  0  0  0  0  0  0  0  0  0
   -4.9814   -1.1014   -0.9524 H   0  0  0  0  0  0  0  0  0  0  0  0
    2.9149   -3.4018   -1.6110 H   0  0  0  0  0  0  0  0  0  0  0  0
    6.2638   -1.7553    0.5310 H   0  0  0  0  0  0  0  0  0  0  0  0
    5.2026   -3.6313   -0.6577 H   0  0  0  0  0  0  0  0  0  0  0  0
    3.9414    0.6398    2.6012 H   0  0  0  0  0  0  0  0  0  0  0  0
    5.4215    1.6161    2.7202 H   0  0  0  0  0  0  0  0  0  0  0  0
    5.5282   -0.1530    2.8481 H   0  0  0  0  0  0  0  0  0  0  0  0
   -5.8252   -3.8037    1.7718 H   0  0  0  0  0  0  0  0  0  0  0  0
   -4.8994   -2.9023    2.9929 H   0  0  0  0  0  0  0  0  0  0  0  0
   -4.0993   -4.1686    1.9937 H   0  0  0  0  0  0  0  0  0  0  0  0
   -4.3535    0.6029   -3.8982 H   0  0  0  0  0  0  0  0  0  0  0  0
   -5.6524   -0.1283   -2.9416 H   0  0  0  0  0  0  0  0  0  0  0  0
   -4.2079   -1.0940   -3.4083 H   0  0  0  0  0  0  0  0  0  0  0  0
  1 21  1  0  0  0  0
  1 27  1  0  0  0  0
  2 22  1  0  0  0  0
  2 28  1  0  0  0  0
  3 23  1  0  0  0  0
  3 29  1  0  0  0  0
  4 22  2  0  0  0  0
  5  7  1  0  0  0  0
  5 11  1  0  0  0  0
  5 13  1  0  0  0  0
  6 12  1  0  0  0  0
  6 19  1  0  0  0  0
  6 43  1  0  0  0  0
  7 10  1  0  0  0  0
  7 12  1  0  0  0  0
  7 30  1  0  0  0  0
  8  9  1  0  0  0  0
  8 11  1  0  0  0  0
  8 16  1  0  0  0  0
  8 31  1  0  0  0  0
  9 10  1  0  0  0  0
  9 17  1  0  0  0  0
  9 32  1  0  0  0  0
 10 33  1  0  0  0  0
 10 34  1  0  0  0  0
 11 35  1  0  0  0  0
 11 36  1  0  0  0  0
 12 14  2  0  0  0  0
 13 15  1  0  0  0  0
 13 37  1  0  0  0  0
 13 38  1  0  0  0  0
 14 15  1  0  0  0  0
 14 18  1  0  0  0  0
 15 39  1  0  0  0  0
 15 40  1  0  0  0  0
 16 20  1  0  0  0  0
 16 41  1  0  0  0  0
 16 42  1  0  0  0  0
 17 22  1  0  0  0  0
 17 23  2  0  0  0  0
 18 19  2  0  0  0  0
 18 21  1  0  0  0  0
 19 24  1  0  0  0  0
 20 44  1  0  0  0  0
 20 45  1  0  0  0  0
 20 46  1  0  0  0  0
 21 25  2  0  0  0  0
 23 47  1  0  0  0  0
 24 26  2  0  0  0  0
 24 48  1  0  0  0  0
 25 26  1  0  0  0  0
 25 49  1  0  0  0  0
 26 50  1  0  0  0  0
 27 51  1  0  0  0  0
 27 52  1  0  0  0  0
 27 53  1  0  0  0  0
 28 54  1  0  0  0  0
 28 55  1  0  0  0  0
 28 56  1  0  0  0  0
 29 57  1  0  0  0  0
 29 58  1  0  0  0  0
 29 59  1  0  0  0  0
M  END
> <PUBCHEM_COMPOUND_CID>
15560576

> <PUBCHEM_CONFORMER_RMSD>
0.8

> <PUBCHEM_CONFORMER_DIVERSEORDER>
4
14
15
13
8
16
12
18
11
9
10
2
7
17
5
1
6
3

> <PUBCHEM_MMFF94_PARTIAL_CHARGES>
29
1 -0.36
11 0.27
12 -0.33
13 0.27
14 -0.18
15 0.18
17 -0.12
19 -0.15
2 -0.43
21 0.08
22 0.71
23 -0.07
24 -0.15
25 -0.15
26 -0.15
27 0.28
28 0.28
29 0.28
3 -0.36
4 -0.57
43 0.27
47 0.15
48 0.15
49 0.15
5 -0.81
50 0.15
6 0.03
7 0.45
9 0.14

> <PUBCHEM_EFFECTIVE_ROTOR_COUNT>
7.2

> <PUBCHEM_PHARMACOPHORE_FEATURES>
11
1 1 acceptor
1 20 hydrophobe
1 3 acceptor
1 4 acceptor
1 5 cation
1 6 cation
1 6 donor
5 6 12 14 18 19 rings
6 18 19 21 24 25 26 rings
6 5 7 12 13 14 15 rings
6 5 7 8 9 10 11 rings

> <PUBCHEM_HEAVY_ATOM_COUNT>
29

> <PUBCHEM_ATOM_DEF_STEREO_COUNT>
3

> <PUBCHEM_ATOM_UDEF_STEREO_COUNT>
0

> <PUBCHEM_BOND_DEF_STEREO_COUNT>
1

> <PUBCHEM_BOND_UDEF_STEREO_COUNT>
0

> <PUBCHEM_ISOTOPIC_ATOM_COUNT>
0

> <PUBCHEM_COMPONENT_COUNT>
1

> <PUBCHEM_CACTVS_TAUTO_COUNT>
1

> <PUBCHEM_CONFORMER_ID>
00ED6F8000000004

> <PUBCHEM_MMFF94_ENERGY>
86.1496

> <PUBCHEM_FEATURE_SELFOVERLAP>
56.067

> <PUBCHEM_SHAPE_FINGERPRINT>
11135609 12 18334582377612738481
11578080 2 17458625665498481828
11796584 16 17676756617965649874
12422481 6 17699887001751727275
12553582 1 18130238171333287869
12633257 1 17629489583929426096
12892183 10 18202001023683775464
13140716 1 18270411468616570824
13544653 18 18272651246658266340
13583140 156 17775562014356172072
13782708 43 18041845151102991499
13911987 19 17690563408878094013
14341114 328 15554451829012272730
14787075 74 17059762446993017200
15361156 5 18056208973149144086
15420108 30 17049081456303189481
17492 89 18338528520143729131
1813 80 17677345913449256732
21033650 10 16226041163514900861
21315759 227 18261677064162331603
21421861 104 18195835043768389225
22122407 14 16271360790896921856
22393880 68 17603857923207513435
22907989 373 11314597605526895513
23559900 14 18334288803270160020
23572383 38 18335129891279897138
3380486 145 18199737214956856231
392239 28 17274528936697210738
4073 2 18339366258463811546
44062 13 17603302670210169335
484985 159 18188501168436649171
5104073 3 18272088232834243578
5486654 36 18264223442691849043
5924683 9 17845926325942983189
613672 6 18410282619086740378
9709674 26 18341335504683642004

> <PUBCHEM_SHAPE_MULTIPOLES>
563.37
11.59
3.7
2.09
4.78
0.23
-0.24
-7.39
2.29
-2.05
1.7
-2.45
-0.64
2.17

> <PUBCHEM_SHAPE_SELFOVERLAP>
1209.62

> <PUBCHEM_SHAPE_VOLUME>
309.2

> <PUBCHEM_COORDINATE_TYPE>
2
5
10

$$$$
