5379742
  -OEChem-03282423303D

 57 60  0     1  0  0  0  0  0999 V2000
    2.3379    2.2740   -2.5457 O   0  0  0  0  0  0  0  0  0  0  0  0
    1.8186   -0.3085    2.3534 O   0  0  0  0  0  0  0  0  0  0  0  0
   -1.4125   -2.7784    0.0283 O   0  0  0  0  0  0  0  0  0  0  0  0
   -3.8685   -0.0606   -2.4426 O   0  0  0  0  0  0  0  0  0  0  0  0
   -3.0046   -2.0355    1.5125 O   0  0  0  0  0  0  0  0  0  0  0  0
    0.2416    1.8583    1.0328 N   0  0  1  0  0  0  0  0  0  0  0  0
    3.3092    0.1981   -2.0540 N   0  0  0  0  0  0  0  0  0  0  0  0
    0.4780    1.3273   -0.3137 C   0  0  1  0  0  0  0  0  0  0  0  0
    2.0098    1.2008   -0.3399 C   0  0  1  0  0  0  0  0  0  0  0  0
   -0.3612    0.0726   -0.5529 C   0  0  0  0  0  0  0  0  0  0  0  0
    2.4847    2.3698    0.5488 C   0  0  0  0  0  0  0  0  0  0  0  0
   -1.8557    0.3957   -0.3612 C   0  0  2  0  0  0  0  0  0  0  0  0
   -2.0954    1.0766    1.0135 C   0  0  1  0  0  0  0  0  0  0  0  0
    1.2127    2.9383    1.1856 C   0  0  0  0  0  0  0  0  0  0  0  0
   -1.1444    2.2779    1.2133 C   0  0  0  0  0  0  0  0  0  0  0  0
    2.6005   -0.1200    0.0903 C   0  0  0  0  0  0  0  0  0  0  0  0
    2.5462    1.3387   -1.7873 C   0  0  0  0  0  0  0  0  0  0  0  0
   -3.5467    1.5413    1.1780 C   0  0  0  0  0  0  0  0  0  0  0  0
    3.3444   -0.6565   -0.9592 C   0  0  0  0  0  0  0  0  0  0  0  0
   -2.6640   -0.8552   -0.5349 C   0  0  0  0  0  0  0  0  0  0  0  0
    2.5143   -0.7969    1.2955 C   0  0  0  0  0  0  0  0  0  0  0  0
   -3.7735    2.1501    2.5455 C   0  0  0  0  0  0  0  0  0  0  0  0
    4.0082   -1.8640   -0.8649 C   0  0  0  0  0  0  0  0  0  0  0  0
    3.1767   -2.0225    1.4175 C   0  0  0  0  0  0  0  0  0  0  0  0
   -2.3951   -1.9407    0.4548 C   0  0  0  0  0  0  0  0  0  0  0  0
   -3.5754   -1.0161   -1.5055 C   0  0  0  0  0  0  0  0  0  0  0  0
    3.9163   -2.5522    0.3455 C   0  0  0  0  0  0  0  0  0  0  0  0
   -1.0844   -3.8546    0.9138 C   0  0  0  0  0  0  0  0  0  0  0  0
   -5.2176   -0.1578   -2.8675 C   0  0  0  0  0  0  0  0  0  0  0  0
    0.1719    2.0793   -1.0581 H   0  0  0  0  0  0  0  0  0  0  0  0
   -0.0516   -0.7091    0.1468 H   0  0  0  0  0  0  0  0  0  0  0  0
   -0.1800   -0.3082   -1.5657 H   0  0  0  0  0  0  0  0  0  0  0  0
    2.9951    3.1522   -0.0246 H   0  0  0  0  0  0  0  0  0  0  0  0
    3.1789    2.0400    1.3310 H   0  0  0  0  0  0  0  0  0  0  0  0
   -2.1269    1.1259   -1.1367 H   0  0  0  0  0  0  0  0  0  0  0  0
   -1.8711    0.3552    1.8122 H   0  0  0  0  0  0  0  0  0  0  0  0
    1.3727    3.1987    2.2366 H   0  0  0  0  0  0  0  0  0  0  0  0
    0.9041    3.8428    0.6462 H   0  0  0  0  0  0  0  0  0  0  0  0
   -1.4074    3.0889    0.5212 H   0  0  0  0  0  0  0  0  0  0  0  0
   -1.2374    2.6691    2.2316 H   0  0  0  0  0  0  0  0  0  0  0  0
   -4.2295    0.6915    1.0685 H   0  0  0  0  0  0  0  0  0  0  0  0
   -3.8140    2.2675    0.4012 H   0  0  0  0  0  0  0  0  0  0  0  0
    3.7864    0.0103   -2.9277 H   0  0  0  0  0  0  0  0  0  0  0  0
   -3.3177    3.1401    2.6379 H   0  0  0  0  0  0  0  0  0  0  0  0
   -4.8475    2.2844    2.7148 H   0  0  0  0  0  0  0  0  0  0  0  0
   -3.3913    1.5069    3.3447 H   0  0  0  0  0  0  0  0  0  0  0  0
    4.5820   -2.2669   -1.6916 H   0  0  0  0  0  0  0  0  0  0  0  0
    3.1256   -2.5782    2.3508 H   0  0  0  0  0  0  0  0  0  0  0  0
   -4.1416   -1.9317   -1.6186 H   0  0  0  0  0  0  0  0  0  0  0  0
    4.4234   -3.5059    0.4639 H   0  0  0  0  0  0  0  0  0  0  0  0
    1.3646    0.5086    2.0978 H   0  0  0  0  0  0  0  0  0  0  0  0
   -0.7174   -3.4606    1.8664 H   0  0  0  0  0  0  0  0  0  0  0  0
   -0.2904   -4.4457    0.4499 H   0  0  0  0  0  0  0  0  0  0  0  0
   -1.9565   -4.4967    1.0695 H   0  0  0  0  0  0  0  0  0  0  0  0
   -5.9064   -0.0676   -2.0199 H   0  0  0  0  0  0  0  0  0  0  0  0
   -5.3942   -1.0968   -3.4035 H   0  0  0  0  0  0  0  0  0  0  0  0
   -5.4179    0.6678   -3.5569 H   0  0  0  0  0  0  0  0  0  0  0  0
  1 17  2  0  0  0  0
  2 21  1  0  0  0  0
  2 51  1  0  0  0  0
  3 25  1  0  0  0  0
  3 28  1  0  0  0  0
  4 26  1  0  0  0  0
  4 29  1  0  0  0  0
  5 25  2  0  0  0  0
  6  8  1  0  0  0  0
  6 14  1  0  0  0  0
  6 15  1  0  0  0  0
  7 17  1  0  0  0  0
  7 19  1  0  0  0  0
  7 43  1  0  0  0  0
  8  9  1  0  0  0  0
  8 10  1  0  0  0  0
  8 30  1  0  0  0  0
  9 11  1  0  0  0  0
  9 16  1  0  0  0  0
  9 17  1  0  0  0  0
 10 12  1  0  0  0  0
 10 31  1  0  0  0  0
 10 32  1  0  0  0  0
 11 14  1  0  0  0  0
 11 33  1  0  0  0  0
 11 34  1  0  0  0  0
 12 13  1  0  0  0  0
 12 20  1  0  0  0  0
 12 35  1  0  0  0  0
 13 15  1  0  0  0  0
 13 18  1  0  0  0  0
 13 36  1  0  0  0  0
 14 37  1  0  0  0  0
 14 38  1  0  0  0  0
 15 39  1  0  0  0  0
 15 40  1  0  0  0  0
 16 19  2  0  0  0  0
 16 21  1  0  0  0  0
 18 22  1  0  0  0  0
 18 41  1  0  0  0  0
 18 42  1  0  0  0  0
 19 23  1  0  0  0  0
 20 25  1  0  0  0  0
 20 26  2  0  0  0  0
 21 24  2  0  0  0  0
 22 44  1  0  0  0  0
 22 45  1  0  0  0  0
 22 46  1  0  0  0  0
 23 27  2  0  0  0  0
 23 47  1  0  0  0  0
 24 27  1  0  0  0  0
 24 48  1  0  0  0  0
 26 49  1  0  0  0  0
 27 50  1  0  0  0  0
 28 52  1  0  0  0  0
 28 53  1  0  0  0  0
 28 54  1  0  0  0  0
 29 55  1  0  0  0  0
 29 56  1  0  0  0  0
 29 57  1  0  0  0  0
M  END
> <PUBCHEM_COMPOUND_CID>
5379742

> <PUBCHEM_CONFORMER_RMSD>
0.8

> <PUBCHEM_CONFORMER_DIVERSEORDER>
3
99
176
36
122
96
142
134
214
76
195
169
172
95
56
50
152
104
171
128
118
9
226
35
132
124
30
97
80
116
181
184
141
120
107
119
75
182
164
158
6
102
200
39
90
52
131
173
213
103
28
183
129
81
170
70
161
23
224
162
202
61
27
72
57
222
143
190
65
156
74
68
186
41
121
150
14
32
109
17
34
126
220
47
37
105
86
189
59
225
48
188
110
20
82
43
144
84
62
38
114
29
22
113
175
180
194
66
87
147
51
219
165
115
191
19
88
12
208
55
49
46
135
160
140
91
138
11
136
146
45
217
215
205
60
166
207
89
201
130
209
25
106
211
31
145
218
196
167
92
108
13
179
151
185
127
148
111
168
210
8
137
193
73
192
139
178
100
153
98
204
58
198
85
125
197
203
163
174
154
53
223
64
117
77
71
123
177
149
4
63
26
216
199
94
83
79
54
206
7
133
212
155
40
18
101
93
69
10
221
24
187
67
159
5
78
33
112
15
2
21
44
42
16
1
157

> <PUBCHEM_MMFF94_PARTIAL_CHARGES>
30
1 -0.57
12 0.14
14 0.27
15 0.27
16 -0.14
17 0.57
19 0.12
2 -0.53
20 -0.12
21 0.08
23 -0.15
24 -0.15
25 0.71
26 -0.07
27 -0.15
28 0.28
29 0.28
3 -0.43
4 -0.36
43 0.37
47 0.15
48 0.15
49 0.15
5 -0.57
50 0.15
51 0.45
6 -0.81
7 -0.55
8 0.27
9 0.2

> <PUBCHEM_EFFECTIVE_ROTOR_COUNT>
6.4

> <PUBCHEM_PHARMACOPHORE_FEATURES>
11
1 1 acceptor
1 2 donor
1 22 hydrophobe
1 4 acceptor
1 5 acceptor
1 6 cation
1 7 donor
5 6 8 9 11 14 rings
5 7 9 16 17 19 rings
6 16 19 21 23 24 27 rings
6 6 8 10 12 13 15 rings

> <PUBCHEM_HEAVY_ATOM_COUNT>
29

> <PUBCHEM_ATOM_DEF_STEREO_COUNT>
0

> <PUBCHEM_ATOM_UDEF_STEREO_COUNT>
4

> <PUBCHEM_BOND_DEF_STEREO_COUNT>
1

> <PUBCHEM_BOND_UDEF_STEREO_COUNT>
0

> <PUBCHEM_ISOTOPIC_ATOM_COUNT>
0

> <PUBCHEM_COMPONENT_COUNT>
1

> <PUBCHEM_CACTVS_TAUTO_COUNT>
13

> <PUBCHEM_CONFORMER_ID>
0052169E00000003

> <PUBCHEM_MMFF94_ENERGY>
87.6767

> <PUBCHEM_FEATURE_SELFOVERLAP>
55.996

> <PUBCHEM_SHAPE_FINGERPRINT>
10675989 125 18267277925282019309
11135926 11 18114195090669203094
11578080 2 17969489571289652997
11582403 64 16157368098617962148
11640471 11 10014997822163954728
12156800 1 15471899233278083085
12160290 23 17844550828449632417
12363563 72 17917702513480798285
12403259 327 16771537362130088618
12553582 1 18263084314707799346
12788726 201 17841738234887756352
13140716 1 18272098162208073913
13782708 43 18196633294507981535
14022347 108 17769969833655929252
14114206 34 18339662052328887004
15420108 30 17052743972521589633
16752209 62 18337659811710864751
17349148 13 18272927198776403055
17809404 112 18127105684276016547
18981168 100 8069762774908522824
192875 21 18130772474108201695
20600515 1 17831251204207774842
20691752 17 18411696560906990512
21315764 21 17895181178360143623
23559900 14 18267849739440647852
238 59 16950291727889156738
3380486 77 17825083961994314178
35225 105 16698961928032816658
57527295 17 17985528186780861487
8988823 20 14260771976010775501

> <PUBCHEM_SHAPE_MULTIPOLES>
557.5
8.26
3.67
2.5
3.36
0.95
-1.03
2.62
-2.91
-0.14
1.75
1.63
-0.44
-2.04

> <PUBCHEM_SHAPE_SELFOVERLAP>
1202.531

> <PUBCHEM_SHAPE_VOLUME>
307.7

> <PUBCHEM_COORDINATE_TYPE>
2
5
10

$$$$
