101289778
  -OEChem-04012400243D

 57 60  0     1  0  0  0  0  0999 V2000
   -2.0525    2.2700   -2.5746 O   0  0  0  0  0  0  0  0  0  0  0  0
   -2.1235   -0.4068    2.3004 O   0  0  0  0  0  0  0  0  0  0  0  0
    3.2921   -0.7006   -2.3171 O   0  0  0  0  0  0  0  0  0  0  0  0
    1.4716   -2.1017    1.6561 O   0  0  0  0  0  0  0  0  0  0  0  0
    4.9485   -1.0494   -0.7600 O   0  0  0  0  0  0  0  0  0  0  0  0
   -0.3901    1.7718    1.2146 N   0  0  2  0  0  0  0  0  0  0  0  0
   -3.0845    0.1920   -2.2406 N   0  0  0  0  0  0  0  0  0  0  0  0
   -0.4706    1.2669   -0.1600 C   0  0  2  0  0  0  0  0  0  0  0  0
   -1.9896    1.1530   -0.3671 C   0  0  2  0  0  0  0  0  0  0  0  0
    0.3835    0.0100   -0.3218 C   0  0  0  0  0  0  0  0  0  0  0  0
   -2.5586    2.3089    0.4823 C   0  0  0  0  0  0  0  0  0  0  0  0
    1.8484    0.3194    0.0473 C   0  0  1  0  0  0  0  0  0  0  0  0
    1.9303    0.9736    1.4525 C   0  0  2  0  0  0  0  0  0  0  0  0
   -1.3664    2.8563    1.2736 C   0  0  0  0  0  0  0  0  0  0  0  0
    0.9678    2.1775    1.5633 C   0  0  0  0  0  0  0  0  0  0  0  0
   -2.6338   -0.1709   -0.0346 C   0  0  0  0  0  0  0  0  0  0  0  0
   -2.3525    1.3220   -1.8643 C   0  0  0  0  0  0  0  0  0  0  0  0
    3.3540    1.4265    1.7951 C   0  0  0  0  0  0  0  0  0  0  0  0
   -3.2522   -0.6825   -1.1741 C   0  0  0  0  0  0  0  0  0  0  0  0
    2.6724   -0.9298   -0.0487 C   0  0  0  0  0  0  0  0  0  0  0  0
   -2.6932   -0.8706    1.1593 C   0  0  0  0  0  0  0  0  0  0  0  0
    3.8541    2.4571    0.8043 C   0  0  0  0  0  0  0  0  0  0  0  0
   -3.9289   -1.8864   -1.1814 C   0  0  0  0  0  0  0  0  0  0  0  0
   -3.3718   -2.0933    1.1793 C   0  0  0  0  0  0  0  0  0  0  0  0
    3.7705   -0.9031   -1.0604 C   0  0  0  0  0  0  0  0  0  0  0  0
    2.4602   -2.0140    0.7116 C   0  0  0  0  0  0  0  0  0  0  0  0
   -3.9833   -2.5975    0.0179 C   0  0  0  0  0  0  0  0  0  0  0  0
    4.2745   -0.6598   -3.3579 C   0  0  0  0  0  0  0  0  0  0  0  0
    1.0234   -3.4386    1.8050 C   0  0  0  0  0  0  0  0  0  0  0  0
   -0.0757    2.0295   -0.8500 H   0  0  0  0  0  0  0  0  0  0  0  0
    0.3252   -0.3396   -1.3607 H   0  0  0  0  0  0  0  0  0  0  0  0
   -0.0171   -0.7944    0.2994 H   0  0  0  0  0  0  0  0  0  0  0  0
   -3.3393    1.9687    1.1733 H   0  0  0  0  0  0  0  0  0  0  0  0
   -2.9960    3.1053   -0.1308 H   0  0  0  0  0  0  0  0  0  0  0  0
    2.1884    1.0427   -0.7033 H   0  0  0  0  0  0  0  0  0  0  0  0
    1.6233    0.2556    2.2230 H   0  0  0  0  0  0  0  0  0  0  0  0
   -0.9934    3.7686    0.7911 H   0  0  0  0  0  0  0  0  0  0  0  0
   -1.6463    3.0982    2.3036 H   0  0  0  0  0  0  0  0  0  0  0  0
    0.9826    2.5552    2.5930 H   0  0  0  0  0  0  0  0  0  0  0  0
    1.2702    3.0011    0.9090 H   0  0  0  0  0  0  0  0  0  0  0  0
    3.3717    1.8589    2.8030 H   0  0  0  0  0  0  0  0  0  0  0  0
    4.0400    0.5726    1.8162 H   0  0  0  0  0  0  0  0  0  0  0  0
   -3.4571    0.0240   -3.1676 H   0  0  0  0  0  0  0  0  0  0  0  0
    3.9192    2.0825   -0.2193 H   0  0  0  0  0  0  0  0  0  0  0  0
    4.8763    2.7398    1.0843 H   0  0  0  0  0  0  0  0  0  0  0  0
    3.2784    3.3849    0.8112 H   0  0  0  0  0  0  0  0  0  0  0  0
   -4.4039   -2.2697   -2.0772 H   0  0  0  0  0  0  0  0  0  0  0  0
   -3.4377   -2.6722    2.0976 H   0  0  0  0  0  0  0  0  0  0  0  0
    3.0727   -2.9031    0.6334 H   0  0  0  0  0  0  0  0  0  0  0  0
   -4.5059   -3.5494    0.0576 H   0  0  0  0  0  0  0  0  0  0  0  0
   -2.2757   -1.0472    3.0163 H   0  0  0  0  0  0  0  0  0  0  0  0
    3.7575   -0.4935   -4.3066 H   0  0  0  0  0  0  0  0  0  0  0  0
    4.8093   -1.6129   -3.4112 H   0  0  0  0  0  0  0  0  0  0  0  0
    4.9713    0.1664   -3.1878 H   0  0  0  0  0  0  0  0  0  0  0  0
    0.1880   -3.4402    2.5115 H   0  0  0  0  0  0  0  0  0  0  0  0
    1.8153   -4.0754    2.2144 H   0  0  0  0  0  0  0  0  0  0  0  0
    0.6628   -3.8428    0.8524 H   0  0  0  0  0  0  0  0  0  0  0  0
  1 17  2  0  0  0  0
  2 21  1  0  0  0  0
  2 51  1  0  0  0  0
  3 25  1  0  0  0  0
  3 28  1  0  0  0  0
  4 26  1  0  0  0  0
  4 29  1  0  0  0  0
  5 25  2  0  0  0  0
  6  8  1  0  0  0  0
  6 14  1  0  0  0  0
  6 15  1  0  0  0  0
  7 17  1  0  0  0  0
  7 19  1  0  0  0  0
  7 43  1  0  0  0  0
  8  9  1  0  0  0  0
  8 10  1  0  0  0  0
  8 30  1  0  0  0  0
  9 11  1  0  0  0  0
  9 16  1  0  0  0  0
  9 17  1  0  0  0  0
 10 12  1  0  0  0  0
 10 31  1  0  0  0  0
 10 32  1  0  0  0  0
 11 14  1  0  0  0  0
 11 33  1  0  0  0  0
 11 34  1  0  0  0  0
 12 13  1  0  0  0  0
 12 20  1  0  0  0  0
 12 35  1  0  0  0  0
 13 15  1  0  0  0  0
 13 18  1  0  0  0  0
 13 36  1  0  0  0  0
 14 37  1  0  0  0  0
 14 38  1  0  0  0  0
 15 39  1  0  0  0  0
 15 40  1  0  0  0  0
 16 19  2  0  0  0  0
 16 21  1  0  0  0  0
 18 22  1  0  0  0  0
 18 41  1  0  0  0  0
 18 42  1  0  0  0  0
 19 23  1  0  0  0  0
 20 25  1  0  0  0  0
 20 26  2  0  0  0  0
 21 24  2  0  0  0  0
 22 44  1  0  0  0  0
 22 45  1  0  0  0  0
 22 46  1  0  0  0  0
 23 27  2  0  0  0  0
 23 47  1  0  0  0  0
 24 27  1  0  0  0  0
 24 48  1  0  0  0  0
 26 49  1  0  0  0  0
 27 50  1  0  0  0  0
 28 52  1  0  0  0  0
 28 53  1  0  0  0  0
 28 54  1  0  0  0  0
 29 55  1  0  0  0  0
 29 56  1  0  0  0  0
 29 57  1  0  0  0  0
M  END
> <PUBCHEM_COMPOUND_CID>
101289778

> <PUBCHEM_CONFORMER_RMSD>
0.8

> <PUBCHEM_CONFORMER_DIVERSEORDER>
1
31
14
11
26
12
28
4
5
29
10
9
7
6
19
25
13
23
15
3
2
20
18
21
8
17
30
22
16
24
27

> <PUBCHEM_MMFF94_PARTIAL_CHARGES>
30
1 -0.57
12 0.14
14 0.27
15 0.27
16 -0.14
17 0.57
19 0.12
2 -0.53
20 -0.12
21 0.08
23 -0.15
24 -0.15
25 0.71
26 -0.07
27 -0.15
28 0.28
29 0.28
3 -0.43
4 -0.36
43 0.37
47 0.15
48 0.15
49 0.15
5 -0.57
50 0.15
51 0.45
6 -0.81
7 -0.55
8 0.27
9 0.2

> <PUBCHEM_EFFECTIVE_ROTOR_COUNT>
6.4

> <PUBCHEM_PHARMACOPHORE_FEATURES>
11
1 1 acceptor
1 2 donor
1 22 hydrophobe
1 4 acceptor
1 5 acceptor
1 6 cation
1 7 donor
5 6 8 9 11 14 rings
5 7 9 16 17 19 rings
6 16 19 21 23 24 27 rings
6 6 8 10 12 13 15 rings

> <PUBCHEM_HEAVY_ATOM_COUNT>
29

> <PUBCHEM_ATOM_DEF_STEREO_COUNT>
3

> <PUBCHEM_ATOM_UDEF_STEREO_COUNT>
1

> <PUBCHEM_BOND_DEF_STEREO_COUNT>
1

> <PUBCHEM_BOND_UDEF_STEREO_COUNT>
0

> <PUBCHEM_ISOTOPIC_ATOM_COUNT>
0

> <PUBCHEM_COMPONENT_COUNT>
1

> <PUBCHEM_CACTVS_TAUTO_COUNT>
13

> <PUBCHEM_CONFORMER_ID>
06098F3200000001

> <PUBCHEM_MMFF94_ENERGY>
89.2714

> <PUBCHEM_FEATURE_SELFOVERLAP>
55.996

> <PUBCHEM_SHAPE_FINGERPRINT>
10764073 3 13012193376631626137
10928967 22 16988574450672908470
11513181 2 16112339944642517254
11578080 2 18116973525918272244
11582403 64 15530422028700928873
12156800 1 16239564409191273540
12553582 1 17983004553659366272
12596599 1 17917720097061616683
12714826 92 18334860506793841151
12788726 201 17913765025309324729
13135754 10 17842873008085859891
13140716 1 17916865720834548288
13224815 77 18411975875562318592
13617811 41 17531792594650781381
13911987 19 17696170875108850008
13947920 24 17315379147822574542
14787075 74 18051401057434169936
15513586 35 13996276920476649420
17349148 13 17095792278924889754
17980427 23 15936952103547900308
19319366 153 17900282809102142138
22393880 68 18261382305141677974
22907989 373 17313397746085530151
23559900 14 18116966975823626472
3737641 26 17560253529938784212
463206 1 18120637287809530467
469060 322 17677352600570470091
5895379 119 16227147229410223188
70251023 43 17988635277190855767

> <PUBCHEM_SHAPE_MULTIPOLES>
557.5
8.24
3.42
2.63
3.18
0.08
-1.6
-3.55
-3.19
-0.35
1.53
1.09
-0.48
1.73

> <PUBCHEM_SHAPE_SELFOVERLAP>
1203.746

> <PUBCHEM_SHAPE_VOLUME>
307.4

> <PUBCHEM_COORDINATE_TYPE>
2
5
10

$$$$
